@<TRIPOS>MOLECULE
K36
   63    64     1     0     0
SMALL
No Charge or Current Charge


@<TRIPOS>ATOM
      1 C7           5.1540     0.4100    -1.2730 c3         1 K36       0.231900
      2 O8           3.9600     0.0600    -0.5540 os         1 K36      -0.458100
      3 C9           2.8320    -0.1570    -1.2800 c          1 K36       0.643100
      4 O10          2.7350    -0.0780    -2.4950 o          1 K36      -0.567000
      5 C1           6.2820     0.6030    -0.2690 ca         1 K36      -0.090300
      6 C2           7.0980    -0.4840     0.1020 ca         1 K36      -0.083500
      7 C3           8.1400    -0.3040     1.0290 ca         1 K36      -0.119000
      8 C4           8.3720     0.9630     1.5910 ca         1 K36      -0.106000
      9 C5           7.5600     2.0500     1.2270 ca         1 K36      -0.119000
     10 C6           6.5180     1.8710     0.3000 ca         1 K36      -0.083500
     11 N11          1.8140    -0.4680    -0.4280 ns         1 K36      -0.479900
     12 C12          0.4230    -0.7660    -0.8300 c3         1 K36       0.049700
     13 C17         -0.5230    -0.5170     0.3830 c          1 K36       0.602100
     14 O18         -0.1330    -0.5820     1.5440 o          1 K36      -0.627100
     15 C13          0.3390    -2.2270    -1.3640 c3         1 K36      -0.086400
     16 C14         -0.9980    -2.6450    -2.0380 c3         1 K36      -0.060700
     17 C15         -1.3150    -1.8040    -3.2980 c3         1 K36      -0.080600
     18 C16         -0.9890    -4.1530    -2.3820 c3         1 K36      -0.080600
     19 N19         -1.8290    -0.1950     0.0680 ns         1 K36      -0.480900
     20 C20         -2.8940     0.0740     1.0380 c3         1 K36       0.108700
     21 C21         -4.0560    -0.9560     0.8750 c3         1 K36      -0.098700
     22 O22         -4.9200    -0.9290     2.0590 oh         1 K36      -0.639000
     23 C24         -3.3290     1.5690     1.0370 c3         1 K36      -0.080400
     24 C25         -2.2080     2.6170     1.3280 c5         1 K36      -0.145700
     25 C26         -2.7600     4.0080     1.7520 c5         1 K36      -0.094400
     26 C27         -3.0440     4.6700     0.3760 c5         1 K36       0.102000
     27 N28         -1.9320     4.1400    -0.4080 ns         1 K36      -0.525900
     28 C29         -1.4070     2.9660     0.0620 c          1 K36       0.568000
     29 O30         -0.3700     2.4870    -0.3640 o          1 K36      -0.551000
     30 S1          -5.0290    -0.7950    -0.7160 s6         1 K36       1.283600
     31 O1          -5.9760     0.2940    -0.4330 o          1 K36      -0.685533
     32 O2          -4.0240    -0.4780    -1.7420 o          1 K36      -0.685533
     33 O3          -5.6630    -2.1120    -0.8800 o          1 K36      -0.685533
     34 H1           5.4260    -0.3830    -1.9830 h1         1 K36       0.050200
     35 H2           5.0070     1.3370    -1.8430 h1         1 K36       0.050200
     36 H3           6.9240    -1.4690    -0.3260 ha         1 K36       0.116500
     37 H18          8.7670    -1.1470     1.3110 ha         1 K36       0.109000
     38 H28          9.1790     1.1010     2.3080 ha         1 K36       0.106000
     39 H29          7.7370     3.0310     1.6620 ha         1 K36       0.109000
     40 H30          5.8920     2.7180     0.0250 ha         1 K36       0.116500
     41 H4           2.0450    -0.4700     0.5580 hn         1 K36       0.349500
     42 H5           0.1440    -0.0590    -1.6210 h1         1 K36       0.085700
     43 H6           1.1460    -2.3850    -2.0910 hc         1 K36       0.044700
     44 H7           0.5460    -2.9080    -0.5290 hc         1 K36       0.044700
     45 H8          -1.8130    -2.4970    -1.3200 hc         1 K36       0.076700
     46 H9          -2.2480    -2.1440    -3.7640 hc         1 K36       0.030033
     47 H10         -1.4390    -0.7440    -3.0520 hc         1 K36       0.030033
     48 H11         -0.5120    -1.8940    -4.0400 hc         1 K36       0.030033
     49 H12         -0.8180    -4.7550    -1.4820 hc         1 K36       0.030033
     50 H13         -1.9490    -4.4580    -2.8140 hc         1 K36       0.030033
     51 H14         -0.1980    -4.3850    -3.1060 hc         1 K36       0.030033
     52 H15         -2.0790    -0.1740    -0.9160 hn         1 K36       0.341500
     53 H16         -2.4790    -0.1150     2.0370 h1         1 K36       0.077700
     54 H17         -3.6110    -1.9530     0.7930 h2         1 K36       0.097700
     55 H19         -5.6770    -0.3340     1.8480 ho         1 K36       0.447000
     56 H20         -3.8060     1.8130     0.0800 hc         1 K36       0.067200
     57 H21         -4.1130     1.6780     1.7960 hc         1 K36       0.067200
     58 H22         -1.5370     2.1790     2.0750 hc         1 K36       0.078700
     59 H23         -3.6480     3.9570     2.3930 hc         1 K36       0.051700
     60 H24         -1.9980     4.5760     2.3010 hc         1 K36       0.051700
     61 H25         -4.0110     4.3490    -0.0350 h1         1 K36       0.041200
     62 H26         -3.0380     5.7660     0.4380 h1         1 K36       0.041200
     63 H27         -1.4860     4.5950    -1.1960 hn         1 K36       0.319500
@<TRIPOS>BOND
     1     1     2 1   
     2     1     5 1   
     3     1    34 1   
     4     1    35 1   
     5     2     3 1   
     6     3     4 2   
     7     3    11 1   
     8     5     6 ar  
     9     5    10 ar  
    10     6     7 ar  
    11     6    36 1   
    12     7     8 ar  
    13     7    37 1   
    14     8     9 ar  
    15     8    38 1   
    16     9    10 ar  
    17     9    39 1   
    18    10    40 1   
    19    11    12 1   
    20    11    41 1   
    21    12    13 1   
    22    12    15 1   
    23    12    42 1   
    24    13    14 2   
    25    13    19 1   
    26    15    16 1   
    27    15    43 1   
    28    15    44 1   
    29    16    17 1   
    30    16    18 1   
    31    16    45 1   
    32    17    46 1   
    33    17    47 1   
    34    17    48 1   
    35    18    49 1   
    36    18    50 1   
    37    18    51 1   
    38    19    20 1   
    39    19    52 1   
    40    20    21 1   
    41    20    23 1   
    42    20    53 1   
    43    21    22 1   
    44    21    30 1   
    45    21    54 1   
    46    22    55 1   
    47    23    24 1   
    48    23    56 1   
    49    23    57 1   
    50    24    25 1   
    51    24    28 1   
    52    24    58 1   
    53    25    26 1   
    54    25    59 1   
    55    25    60 1   
    56    26    27 1   
    57    26    61 1   
    58    26    62 1   
    59    27    28 1   
    60    27    63 1   
    61    28    29 2   
    62    30    31 1   
    63    30    32 1   
    64    30    33 1   
@<TRIPOS>SUBSTRUCTURE
     1 K36         1 TEMP              0 ****  ****    0 ROOT
