@<TRIPOS>MOLECULE
K36
   63    64     1     0     0
SMALL
abcg2


@<TRIPOS>ATOM
      1 C7           4.9010     0.7440    -1.2020 c3         1 K36       0.231900
      2 O8           3.8220     0.0750    -0.5410 os         1 K36      -0.458100
      3 C9           2.6620    -0.0130    -1.2060 c          1 K36       0.643100
      4 O10          2.4810     0.4490    -2.3150 o          1 K36      -0.567000
      5 C1           6.0390     0.8010    -0.2280 ca         1 K36      -0.090300
      6 C2           6.9640    -0.2360    -0.1580 ca         1 K36      -0.083500
      7 C3           8.0020    -0.1950     0.7630 ca         1 K36      -0.119000
      8 C4           8.1230     0.8880     1.6250 ca         1 K36      -0.106000
      9 C5           7.2050     1.9270     1.5620 ca         1 K36      -0.119000
     10 C6           6.1670     1.8810     0.6400 ca         1 K36      -0.083500
     11 N11          1.7510    -0.6760    -0.4780 ns         1 K36      -0.479900
     12 C12          0.3870    -0.8640    -0.9080 c3         1 K36       0.049700
     13 C17         -0.5000    -0.6930     0.3220 c          1 K36       0.602100
     14 O18         -0.1430    -1.1280     1.4080 o          1 K36      -0.627100
     15 C13          0.1890    -2.2550    -1.5290 c3         1 K36      -0.086400
     16 C14         -1.1860    -2.5290    -2.1410 c3         1 K36      -0.060700
     17 C15         -1.4900    -1.5990    -3.3110 c3         1 K36      -0.080600
     18 C16         -1.2610    -3.9860    -2.5870 c3         1 K36      -0.080600
     19 N19         -1.6670    -0.0760     0.1140 ns         1 K36      -0.480900
     20 C20         -2.6360     0.1680     1.1550 c3         1 K36       0.108700
     21 C21         -3.6630    -0.9750     1.2150 c3         1 K36      -0.098700
     22 O22         -4.4040    -0.9600     2.3980 oh         1 K36      -0.639000
     23 C24         -3.2410     1.5630     1.0130 c3         1 K36      -0.080400
     24 C25         -2.3450     2.7250     1.4670 c5         1 K36      -0.145700
     25 C26         -2.9580     4.0580     1.0310 c5         1 K36      -0.094400
     26 C27         -2.3820     4.2700    -0.3740 c5         1 K36       0.102000
     27 N28         -1.1090     3.5870    -0.2820 ns         1 K36      -0.525900
     28 C29         -0.9860     2.7620     0.7730 c          1 K36       0.568000
     29 O30          0.0290     2.1770     1.1110 o          1 K36      -0.551000
     30 S1          -4.8360    -1.0020    -0.1970 s6         1 K36       1.283600
     31 O1          -5.8960    -0.0600     0.2360 o          1 K36      -0.685533
     32 O2          -4.1010    -0.5410    -1.3900 o          1 K36      -0.685533
     33 O3          -5.3080    -2.3930    -0.2910 o          1 K36      -0.685533
     34 H1           5.1870     0.1970    -2.1030 h1         1 K36       0.050200
     35 H2           4.5970     1.7500    -1.4990 h1         1 K36       0.050200
     36 H3           6.8770    -1.0810    -0.8310 ha         1 K36       0.116500
     37 H18          8.7160    -1.0060     0.8070 ha         1 K36       0.109000
     38 H28          8.9350     0.9230     2.3400 ha         1 K36       0.106000
     39 H29          7.2970     2.7750     2.2280 ha         1 K36       0.109000
     40 H30          5.4550     2.6970     0.5940 ha         1 K36       0.116500
     41 H4           1.9980    -1.0190     0.4370 hn         1 K36       0.349500
     42 H5           0.1610    -0.0920    -1.6450 h1         1 K36       0.085700
     43 H6           0.9500    -2.3740    -2.3060 hc         1 K36       0.044700
     44 H7           0.4060    -3.0060    -0.7630 hc         1 K36       0.044700
     45 H8          -1.9610    -2.3790    -1.3820 hc         1 K36       0.076700
     46 H9          -2.4650    -1.8270    -3.7420 hc         1 K36       0.030033
     47 H10         -1.5160    -0.5480    -3.0200 hc         1 K36       0.030033
     48 H11         -0.7370    -1.7040    -4.0960 hc         1 K36       0.030033
     49 H12         -1.0710    -4.6670    -1.7550 hc         1 K36       0.030033
     50 H13         -2.2460    -4.2220    -2.9910 hc         1 K36       0.030033
     51 H14         -0.5220    -4.1990    -3.3640 hc         1 K36       0.030033
     52 H15         -1.9410     0.1630    -0.8270 hn         1 K36       0.341500
     53 H16         -2.1010     0.1200     2.1070 h1         1 K36       0.077700
     54 H17         -3.1110    -1.9190     1.1790 h2         1 K36       0.097700
     55 H19         -5.1410    -0.3460     2.2790 ho         1 K36       0.447000
     56 H20         -3.5650     1.7220    -0.0190 hc         1 K36       0.067200
     57 H21         -4.1440     1.6230     1.6220 hc         1 K36       0.067200
     58 H22         -2.1990     2.6610     2.5470 hc         1 K36       0.078700
     59 H23         -4.0470     4.0550     1.0390 hc         1 K36       0.051700
     60 H24         -2.6210     4.8620     1.6880 hc         1 K36       0.051700
     61 H25         -3.0180     3.8330    -1.1500 h1         1 K36       0.041200
     62 H26         -2.2440     5.3240    -0.6130 h1         1 K36       0.041200
     63 H27         -0.3550     3.7460    -0.9320 hn         1 K36       0.319500
@<TRIPOS>BOND
     1     1     2 1   
     2     1     5 1   
     3     1    34 1   
     4     1    35 1   
     5     2     3 1   
     6     3     4 2   
     7     3    11 1   
     8     5     6 ar  
     9     5    10 ar  
    10     6     7 ar  
    11     6    36 1   
    12     7     8 ar  
    13     7    37 1   
    14     8     9 ar  
    15     8    38 1   
    16     9    10 ar  
    17     9    39 1   
    18    10    40 1   
    19    11    12 1   
    20    11    41 1   
    21    12    13 1   
    22    12    15 1   
    23    12    42 1   
    24    13    14 2   
    25    13    19 1   
    26    15    16 1   
    27    15    43 1   
    28    15    44 1   
    29    16    17 1   
    30    16    18 1   
    31    16    45 1   
    32    17    46 1   
    33    17    47 1   
    34    17    48 1   
    35    18    49 1   
    36    18    50 1   
    37    18    51 1   
    38    19    20 1   
    39    19    52 1   
    40    20    21 1   
    41    20    23 1   
    42    20    53 1   
    43    21    22 1   
    44    21    30 1   
    45    21    54 1   
    46    22    55 1   
    47    23    24 1   
    48    23    56 1   
    49    23    57 1   
    50    24    25 1   
    51    24    28 1   
    52    24    58 1   
    53    25    26 1   
    54    25    59 1   
    55    25    60 1   
    56    26    27 1   
    57    26    61 1   
    58    26    62 1   
    59    27    28 1   
    60    27    63 1   
    61    28    29 2   
    62    30    31 1   
    63    30    32 1   
    64    30    33 1   
@<TRIPOS>SUBSTRUCTURE
     1 K36         1 TEMP              0 ****  ****    0 ROOT
