@<TRIPOS>MOLECULE
K38
   68    73     1     0     0
SMALL
No Charge or Current Charge


@<TRIPOS>ATOM
      1 N1          -0.8800     2.4300     0.9810 nb         1 K38      -0.301000
      2 C2          -1.3620     1.3850     1.6940 ca         1 K38       0.187900
      3 C4          -2.8050     0.6910     0.0600 ca         1 K38       0.145500
      4 C5          -2.3970     1.7290    -0.7390 ca         1 K38      -0.104600
      5 C6          -1.4050     2.5990    -0.2420 ca         1 K38       0.453900
      6 C1           3.0060    -0.3020     1.3880 c5         1 K38       0.309300
      7 C7           1.6820    -1.0000     1.8410 c5         1 K38       0.136300
      8 C3           2.2510    -2.4190     2.1120 c5         1 K38       0.098300
      9 C9           3.1850    -2.5970     0.8610 c5         1 K38       0.134300
     10 C10          2.4540    -3.1990    -0.3750 c3         1 K38       0.145600
     11 C8          -3.8710     0.6740    -1.8960 cc         1 K38       0.399700
     12 CAF         -4.4050    -1.2440    -0.2640 c5         1 K38       0.316300
     13 CAG         -5.3050    -2.0190    -1.3200 c5         1 K38       0.083300
     14 CAH         -4.6950    -3.4630    -1.3310 c5         1 K38       0.111300
     15 CAI         -3.2270    -3.1800    -0.8920 c5         1 K38       0.165300
     16 CAJ         -2.3030    -2.6280    -2.0250 c3         1 K38       0.147800
     17 CAL         -0.4350    -1.0380    -2.4420 c3         1 K38       0.249900
     18 CAM          0.5280    -0.1930    -1.7370 c1         1 K38      -0.109100
     19 CAN          1.2910     0.5200    -1.1160 cg         1 K38      -0.096200
     20 CAO          2.1440     1.3760    -0.3650 cc         1 K38       0.473700
     21 CAQ          3.6180     2.1290     1.1180 ca         1 K38       0.151500
     22 CAS          4.9810     3.6120     2.2020 ca         1 K38       0.187900
     23 CAU          3.7610     4.4140     0.4410 ca         1 K38       0.452900
     24 CAV          3.2140     3.1270     0.2660 ca         1 K38      -0.100600
     25 N3          -2.3020     0.4960     1.2940 nb         1 K38      -0.219000
     26 N6          -0.8980     3.6240    -0.9740 nv         1 K38      -1.061900
     27 N7          -3.0510     1.7380    -1.9730 nd         1 K38      -0.546100
     28 N9          -3.7280    -0.0020    -0.6760 na         1 K38      -0.291300
     29 NAK         -1.1330    -1.9070    -1.4810 n7         1 K38      -0.872400
     30 NAP          2.9460     1.0060     0.7240 na         1 K38      -0.260300
     31 NAR          4.5080     2.3470     2.1060 nb         1 K38      -0.212000
     32 NAT          4.6520     4.6630     1.4130 nb         1 K38      -0.304000
     33 NAW          2.2900     2.6760    -0.6800 nd         1 K38      -0.531100
     34 NAX          3.4390     5.4650    -0.3580 nv         1 K38      -1.062900
     35 O2           1.1170    -0.4610     3.0420 oh         1 K38      -0.675000
     36 O3           2.9710    -2.4410     3.3620 oh         1 K38      -0.690000
     37 O4           3.6740    -1.2610     0.5390 os         1 K38      -0.433000
     38 O5           3.3830    -3.5350    -1.4220 oh         1 K38      -0.702000
     39 OBH         -3.4040    -2.1980     0.1590 os         1 K38      -0.454000
     40 OBI         -5.4130    -4.2770    -0.3990 oh         1 K38      -0.702000
     41 OBJ         -6.7050    -2.0800    -0.9640 oh         1 K38      -0.690000
     42 H1          -0.9520     1.2460     2.6930 h5         1 K38       0.049100
     43 H2           3.6250    -0.1480     2.2810 h2         1 K38       0.121700
     44 H3           0.9330    -1.0240     1.0390 h1         1 K38       0.055700
     45 H4           1.4490    -3.1710     2.1230 h1         1 K38       0.056700
     46 H5           4.0400    -3.2440     1.1010 h1         1 K38       0.074700
     47 H6           1.9160    -4.1020    -0.0540 h1         1 K38       0.033700
     48 H7           1.7040    -2.4860    -0.7360 h1         1 K38       0.033700
     49 H8          -4.5550     0.3560    -2.6730 h5         1 K38       0.058800
     50 H9          -5.0150    -0.9620     0.6050 h2         1 K38       0.126700
     51 H10         -5.1980    -1.5910    -2.3250 h1         1 K38       0.051700
     52 H11         -4.7350    -3.9080    -2.3360 h1         1 K38       0.056700
     53 H12         -2.7500    -4.0740    -0.4690 h1         1 K38       0.103700
     54 H13         -1.9810    -3.4610    -2.6640 h1         1 K38       0.034700
     55 H14         -2.8930    -1.9520    -2.6580 h1         1 K38       0.034700
     56 H15         -1.1450    -0.3820    -2.9650 h1         1 K38       0.052700
     57 H16          0.0920    -1.6340    -3.2000 h1         1 K38       0.052700
     58 H17          5.7020     3.8040     2.9950 h5         1 K38       0.047100
     59 H18         -1.1520     3.6140    -1.9570 hn         1 K38       0.507500
     60 H19          0.0710     3.8660    -0.7850 hn         1 K38       0.507500
     61 H20         -1.5030    -1.2970    -0.7410 hn         1 K38       0.434000
     62 H22          4.0640     6.2660    -0.3590 hn         1 K38       0.506000
     63 H23          2.9770     5.2510    -1.2380 hn         1 K38       0.506000
     64 H24          1.5920    -0.9470     3.7600 ho         1 K38       0.512000
     65 H25          3.2840    -3.3650     3.5120 ho         1 K38       0.505000
     66 H26          2.8510    -3.8450    -2.1920 ho         1 K38       0.501000
     67 H27         -6.2450    -3.7490    -0.2710 ho         1 K38       0.525000
     68 H28         -7.1370    -1.2470    -1.2750 ho         1 K38       0.516000
@<TRIPOS>BOND
     1     1     2 ar  
     2     1     5 ar  
     3     2    25 ar  
     4     2    42 1   
     5     3     4 ar  
     6     3    25 ar  
     7     3    28 1   
     8     4     5 ar  
     9     4    27 1   
    10     5    26 1   
    11     6     7 1   
    12     6    30 1   
    13     6    37 1   
    14     6    43 1   
    15     7     8 1   
    16     7    35 1   
    17     7    44 1   
    18     8     9 1   
    19     8    36 1   
    20     8    45 1   
    21     9    10 1   
    22     9    37 1   
    23     9    46 1   
    24    10    38 1   
    25    10    47 1   
    26    10    48 1   
    27    11    27 2   
    28    11    28 1   
    29    11    49 1   
    30    12    13 1   
    31    12    28 1   
    32    12    39 1   
    33    12    50 1   
    34    13    14 1   
    35    13    41 1   
    36    13    51 1   
    37    14    15 1   
    38    14    40 1   
    39    14    52 1   
    40    15    16 1   
    41    15    39 1   
    42    15    53 1   
    43    16    29 1   
    44    16    54 1   
    45    16    55 1   
    46    17    18 1   
    47    17    29 1   
    48    17    56 1   
    49    17    57 1   
    50    18    19 3   
    51    19    20 1   
    52    20    30 1   
    53    20    33 2   
    54    21    24 ar  
    55    21    30 1   
    56    21    31 ar  
    57    22    31 ar  
    58    22    32 ar  
    59    22    58 1   
    60    23    24 ar  
    61    23    32 ar  
    62    23    34 1   
    63    24    33 1   
    64    26    59 1   
    65    26    60 1   
    66    29    61 1   
    67    34    62 1   
    68    34    63 1   
    69    35    64 1   
    70    36    65 1   
    71    38    66 1   
    72    40    67 1   
    73    41    68 1   
@<TRIPOS>SUBSTRUCTURE
     1 K38         1 TEMP              0 ****  ****    0 ROOT
