@<TRIPOS>MOLECULE
K38
   68    73     1     0     0
SMALL
bcc


@<TRIPOS>ATOM
      1 N1          -6.3560     2.3720     2.4470 nb         1 K38      -0.827000
      2 C2          -6.2960     1.0590     2.6550 ca         1 K38       0.713900
      3 C4          -5.1260     0.6650     0.8400 ca         1 K38       0.473800
      4 C5          -5.1020     2.0050     0.4920 ca         1 K38      -0.235200
      5 C6          -5.7640     2.8890     1.3640 ca         1 K38       0.782200
      6 C1           3.6140    -0.3090     1.1670 c5         1 K38       0.256800
      7 C7           2.1400    -0.1420     1.5200 c5         1 K38       0.113100
      8 C3           1.8550    -1.5120     2.1410 c5         1 K38       0.075100
      9 C9           2.7110    -2.4340     1.2570 c5         1 K38       0.111100
     10 C10          1.9010    -3.1260     0.1850 c3         1 K38       0.122400
     11 C8          -4.0150     1.0020    -1.0130 cc         1 K38       0.399700
     12 CAF         -4.1290    -1.3820    -0.2050 c5         1 K38       0.263800
     13 CAG         -4.6300    -2.0700    -1.4750 c5         1 K38       0.060100
     14 CAH         -3.6490    -3.2400    -1.5800 c5         1 K38       0.088100
     15 CAI         -2.3530    -2.5780    -1.1330 c5         1 K38       0.142100
     16 CAJ         -1.5750    -1.9620    -2.2820 c3         1 K38       0.147800
     17 CAL          0.4820    -0.8160    -2.8280 c3         1 K38       0.249900
     18 CAM          1.6770    -0.2270    -2.2400 c1         1 K38      -0.109100
     19 CAN          2.6320     0.2640    -1.6980 cg         1 K38      -0.096200
     20 CAO          3.7470     0.8840    -1.0870 cc         1 K38       0.473700
     21 CAQ          5.2370     1.4150     0.4300 ca         1 K38       0.479800
     22 CAS          6.9610     2.3770     1.3930 ca         1 K38       0.713900
     23 CAU          6.5250     3.0070    -0.7760 ca         1 K38       0.781200
     24 CAV          5.4360     2.1120    -0.7500 ca         1 K38      -0.231200
     25 N3          -5.7100     0.1360     1.9120 nb         1 K38      -0.745000
     26 N6          -5.8280     4.2030     1.1500 nv         1 K38      -0.951500
     27 N7          -4.3990     2.1940    -0.6710 nd         1 K38      -0.546100
     28 N9          -4.4260     0.0260    -0.1440 na         1 K38      -0.262000
     29 NAK         -0.4150    -1.2600    -1.7790 n7         1 K38      -0.817200
     30 NAP          4.1440     0.6260     0.2100 na         1 K38      -0.231000
     31 NAR          5.9720     1.5100     1.5340 nb         1 K38      -0.738000
     32 NAT          7.2710     3.1120     0.3280 nb         1 K38      -0.830000
     33 NAW          4.5020     1.7700    -1.6820 nd         1 K38      -0.531100
     34 NAX          6.8240     3.7460    -1.8430 nv         1 K38      -0.952500
     35 O2           1.9730     0.9660     2.3440 oh         1 K38      -0.552800
     36 O3           2.2890    -1.4790     3.4750 oh         1 K38      -0.567800
     37 O4           3.7250    -1.6100     0.6690 os         1 K38      -0.386600
     38 O5           2.7700    -3.9000    -0.6080 oh         1 K38      -0.579800
     39 OBH         -2.7410    -1.5690    -0.1900 os         1 K38      -0.407600
     40 OBI         -3.9780    -4.2530    -0.6650 oh         1 K38      -0.579800
     41 OBJ         -5.9700    -2.4270    -1.3210 oh         1 K38      -0.567800
     42 H1          -6.7950     0.7060     3.5510 h5         1 K38       0.049100
     43 H2           4.2200    -0.1670     2.0710 h2         1 K38       0.121700
     44 H3           1.5480    -0.0630     0.6000 h1         1 K38       0.055700
     45 H4           0.7910    -1.7760     2.0760 h1         1 K38       0.056700
     46 H5           3.2000    -3.1960     1.8760 h1         1 K38       0.074700
     47 H6           1.1570    -3.7500     0.7000 h1         1 K38       0.033700
     48 H7           1.3420    -2.3950    -0.4110 h1         1 K38       0.033700
     49 H8          -3.4250     0.7730    -1.8880 h5         1 K38       0.058800
     50 H9          -4.6010    -1.8270     0.6770 h2         1 K38       0.126700
     51 H10         -4.4850    -1.4060    -2.3370 h1         1 K38       0.051700
     52 H11         -3.5770    -3.6240    -2.6060 h1         1 K38       0.056700
     53 H12         -1.7030    -3.2910    -0.6180 h1         1 K38       0.103700
     54 H13         -1.2360    -2.7780    -2.9250 h1         1 K38       0.034700
     55 H14         -2.2300    -1.3300    -2.9050 h1         1 K38       0.034700
     56 H15          0.0330    -0.0940    -3.5260 h1         1 K38       0.052700
     57 H16          0.7750    -1.6800    -3.4300 h1         1 K38       0.052700
     58 H17          7.6060     2.5090     2.2540 h5         1 K38       0.047100
     59 H18         -5.3450     4.6270     0.3780 hn         1 K38       0.452300
     60 H19         -6.2510     4.8070     1.8350 hn         1 K38       0.452300
     61 H20         -0.7050    -0.4660    -1.2230 hn         1 K38       0.378800
     62 H22          7.6470     4.3230    -1.8430 hn         1 K38       0.450800
     63 H23          6.3200     3.6390    -2.7060 hn         1 K38       0.450800
     64 H24          1.0350     1.1720     2.4000 ho         1 K38       0.413000
     65 H25          2.1690    -2.3560     3.8530 ho         1 K38       0.406000
     66 H26          2.2570    -4.2880    -1.3220 ho         1 K38       0.402000
     67 H27         -4.9220    -4.4320    -0.7440 ho         1 K38       0.426000
     68 H28         -6.3460    -2.6090    -2.1880 ho         1 K38       0.417000
@<TRIPOS>BOND
     1     1     2 ar  
     2     1     5 ar  
     3     2    25 ar  
     4     2    42 1   
     5     3     4 ar  
     6     3    25 ar  
     7     3    28 1   
     8     4     5 ar  
     9     4    27 1   
    10     5    26 1   
    11     6     7 1   
    12     6    30 1   
    13     6    37 1   
    14     6    43 1   
    15     7     8 1   
    16     7    35 1   
    17     7    44 1   
    18     8     9 1   
    19     8    36 1   
    20     8    45 1   
    21     9    10 1   
    22     9    37 1   
    23     9    46 1   
    24    10    38 1   
    25    10    47 1   
    26    10    48 1   
    27    11    27 2   
    28    11    28 1   
    29    11    49 1   
    30    12    13 1   
    31    12    28 1   
    32    12    39 1   
    33    12    50 1   
    34    13    14 1   
    35    13    41 1   
    36    13    51 1   
    37    14    15 1   
    38    14    40 1   
    39    14    52 1   
    40    15    16 1   
    41    15    39 1   
    42    15    53 1   
    43    16    29 1   
    44    16    54 1   
    45    16    55 1   
    46    17    18 1   
    47    17    29 1   
    48    17    56 1   
    49    17    57 1   
    50    18    19 3   
    51    19    20 1   
    52    20    30 1   
    53    20    33 2   
    54    21    24 ar  
    55    21    30 1   
    56    21    31 ar  
    57    22    31 ar  
    58    22    32 ar  
    59    22    58 1   
    60    23    24 ar  
    61    23    32 ar  
    62    23    34 1   
    63    24    33 1   
    64    26    59 1   
    65    26    60 1   
    66    29    61 1   
    67    34    62 1   
    68    34    63 1   
    69    35    64 1   
    70    36    65 1   
    71    38    66 1   
    72    40    67 1   
    73    41    68 1   
@<TRIPOS>SUBSTRUCTURE
     1 K38         1 TEMP              0 ****  ****    0 ROOT
