@<TRIPOS>MOLECULE
K3A
   19    19     1     0     0
SMALL
No Charge or Current Charge


@<TRIPOS>ATOM
      1 N1           2.0890     0.9660    -0.2970 na         1 K3A      -0.004200
      2 C4           2.1040    -0.3990    -0.0170 cc         1 K3A      -0.128300
      3 C5           3.3330    -1.2580     0.1060 c3         1 K3A      -0.033800
      4 N           -1.3230     0.5830    -0.0660 ns         1 K3A      -0.474400
      5 C           -3.7120     0.1590     0.1290 c3         1 K3A      -0.179100
      6 O           -2.0420    -1.5460     0.4050 o          1 K3A      -0.585100
      7 C1          -2.2840    -0.3710     0.1740 c          1 K3A       0.612100
      8 C2           0.0410     0.4690    -0.1030 cd         1 K3A       0.382900
      9 C3           0.7830    -0.7150     0.1080 cd         1 K3A      -0.222000
     10 N2           0.8090     1.5060    -0.3510 nc         1 K3A      -0.582800
     11 H1           2.9130     1.5470    -0.4540 hn         1 K3A       0.370000
     12 H2           3.9080    -1.2540    -0.8280 hc         1 K3A       0.052367
     13 H3           3.9860    -0.8960     0.9090 hc         1 K3A       0.052367
     14 H4           3.0660    -2.2970     0.3320 hc         1 K3A       0.052367
     15 H5          -1.6990     1.5040    -0.2390 hn         1 K3A       0.329500
     16 H6          -3.8070     0.9930     0.8340 hc         1 K3A       0.063033
     17 H7          -3.8810     0.6480    -0.8370 hc         1 K3A       0.063033
     18 H8          -4.4570    -0.6210     0.3230 hc         1 K3A       0.063033
     19 H9           0.3940    -1.7000     0.3290 ha         1 K3A       0.169000
@<TRIPOS>BOND
     1     1     2 1   
     2     1    10 1   
     3     1    11 1   
     4     2     3 1   
     5     2     9 2   
     6     3    12 1   
     7     3    13 1   
     8     3    14 1   
     9     4     7 1   
    10     4     8 1   
    11     4    15 1   
    12     5     7 1   
    13     5    16 1   
    14     5    17 1   
    15     5    18 1   
    16     6     7 2   
    17     8     9 1   
    18     8    10 2   
    19     9    19 1   
@<TRIPOS>SUBSTRUCTURE
     1 K3A         1 TEMP              0 ****  ****    0 ROOT
