@<TRIPOS>MOLECULE
K3A
   19    19     1     0     0
SMALL
bcc


@<TRIPOS>ATOM
      1 N1           2.0700     0.9230    -0.0630 na         1 K3A      -0.004600
      2 C4           2.0920    -0.4160     0.0130 cc         1 K3A      -0.077600
      3 C5           3.3480    -1.2110     0.0180 c3         1 K3A      -0.033800
      4 N           -1.3280     0.6140     0.0280 ns         1 K3A      -0.541400
      5 C           -3.7070     0.2200     0.0530 c3         1 K3A      -0.179100
      6 O           -2.0730    -1.5210     0.1290 o          1 K3A      -0.585100
      7 C1          -2.3030    -0.3250     0.0760 c          1 K3A       0.679100
      8 C2           0.0430     0.3850     0.0110 cd         1 K3A       0.448200
      9 C3           0.7720    -0.8190     0.0650 cd         1 K3A      -0.305300
     10 N2           0.8370     1.4350    -0.0660 nc         1 K3A      -0.582800
     11 H1           2.8610     1.5430    -0.1180 hn         1 K3A       0.319700
     12 H2           3.8610    -1.1550    -0.9430 hc         1 K3A       0.052367
     13 H3           4.0420    -0.8600     0.7820 hc         1 K3A       0.052367
     14 H4           3.1280    -2.2570     0.2180 hc         1 K3A       0.052367
     15 H5          -1.6000     1.5840    -0.0140 hn         1 K3A       0.329500
     16 H6          -3.7600     1.3070     0.0510 hc         1 K3A       0.063033
     17 H7          -4.2180    -0.1500    -0.8360 hc         1 K3A       0.063033
     18 H8          -4.2540    -0.1520     0.9190 hc         1 K3A       0.063033
     19 H9           0.4090    -1.8270     0.1340 ha         1 K3A       0.187000
@<TRIPOS>BOND
     1     1     2 1   
     2     1    10 1   
     3     1    11 1   
     4     2     3 1   
     5     2     9 2   
     6     3    12 1   
     7     3    13 1   
     8     3    14 1   
     9     4     7 1   
    10     4     8 1   
    11     4    15 1   
    12     5     7 1   
    13     5    16 1   
    14     5    17 1   
    15     5    18 1   
    16     6     7 2   
    17     8     9 1   
    18     8    10 2   
    19     9    19 1   
@<TRIPOS>SUBSTRUCTURE
     1 K3A         1 TEMP              0 ****  ****    0 ROOT
