@<TRIPOS>MOLECULE
K3B
   50    54     1     0     0
SMALL
No Charge or Current Charge


@<TRIPOS>ATOM
      1 C2           3.7810    -2.3290     2.1750 ca         1 K3B       0.183900
      2 C4           3.6990    -0.7180     0.5520 ca         1 K3B       0.142500
      3 C5           3.6810    -1.6920    -0.4130 ca         1 K3B      -0.102600
      4 C6           3.7120    -3.0400     0.0010 ca         1 K3B       0.451900
      5 N9           3.6650     0.4700    -0.1210 na         1 K3B      -0.290300
      6 C1           3.6750     1.8040     0.4900 c5         1 K3B       0.315300
      7 C7           4.1630     3.0340    -0.3760 c5         1 K3B       0.080300
      8 C3           3.1610     4.1480     0.0490 c5         1 K3B       0.112300
      9 C9           1.8640     3.3050     0.2580 c5         1 K3B       0.167300
     10 C10          1.1370     2.9110    -1.0620 c3         1 K3B       0.140600
     11 C8           3.6280     0.1700    -1.4890 cc         1 K3B       0.410700
     12 CAP         -0.8030     1.7050    -1.8610 c3         1 K3B       0.243700
     13 CAQ         -1.9660     0.9560    -1.3740 c1         1 K3B      -0.080100
     14 CAR         -2.9150     0.3360    -0.9340 cg         1 K3B      -0.115200
     15 CAS         -4.0090    -0.3830    -0.3850 cc         1 K3B       0.463700
     16 CAU         -5.2790    -1.4580     1.0900 ca         1 K3B       0.133500
     17 CAW         -7.0680    -2.6040     1.9260 ca         1 K3B       0.187900
     18 CAY         -7.1460    -2.0140    -0.2850 ca         1 K3B       0.453900
     19 CAZ         -5.8800    -1.4100    -0.1430 ca         1 K3B      -0.103600
     20 N1           3.7650    -3.3660     1.3020 nb         1 K3B      -0.303000
     21 N3           3.7510    -1.0090     1.8670 nb         1 K3B      -0.217000
     22 N6           3.7010    -4.0770    -0.8770 nv         1 K3B      -1.065900
     23 N7           3.6380    -1.1590    -1.7040 nd         1 K3B      -0.552100
     24 NAT         -4.0950    -0.8080     0.9330 na         1 K3B      -0.394300
     25 NAV         -5.8510    -2.0520     2.1530 nb         1 K3B      -0.220000
     26 NAX         -7.7490    -2.6130     0.7530 nb         1 K3B      -0.304000
     27 NBA         -5.0980    -0.7350    -1.0900 nd         1 K3B      -0.526100
     28 NBB         -7.8290    -2.0200    -1.4610 nv         1 K3B      -1.059900
     29 O2           5.5190     3.4460    -0.1020 oh         1 K3B      -0.691000
     30 O3           3.6260     4.7820     1.2470 oh         1 K3B      -0.700000
     31 O4           2.3420     2.1260     0.9550 os         1 K3B      -0.427000
     32 O5          -0.0490     2.1680    -0.7280 os         1 K3B      -0.425000
     33 H1           3.8230    -2.5810     3.2330 h5         1 K3B       0.046100
     34 H2           4.3280     1.7130     1.3680 h2         1 K3B       0.125700
     35 H3           4.0440     2.8380    -1.4490 h1         1 K3B       0.051700
     36 H4           3.0310     4.8930    -0.7480 h1         1 K3B       0.053700
     37 H5           1.1450     3.8370     0.8940 h1         1 K3B       0.107700
     38 H6           0.8730     3.8250    -1.6080 h1         1 K3B       0.026700
     39 H7           1.8000     2.3140    -1.6990 h1         1 K3B       0.026700
     40 H8           3.5930     0.9290    -2.2600 h5         1 K3B       0.064800
     41 H9          -0.1930     1.0460    -2.4930 h1         1 K3B       0.045200
     42 H10         -1.1500     2.5490    -2.4720 h1         1 K3B       0.045200
     43 H11         -7.5490    -3.0890     2.7740 h5         1 K3B       0.048100
     44 H12          3.8850    -3.8490    -1.8510 hn         1 K3B       0.507000
     45 H13          4.0260    -4.9840    -0.5540 hn         1 K3B       0.507000
     46 H14         -3.3940    -0.6550     1.6440 hn         1 K3B       0.378000
     47 H16         -8.8290    -2.1990    -1.4290 hn         1 K3B       0.507000
     48 H17         -7.5010    -1.3900    -2.1900 hn         1 K3B       0.507000
     49 H18          6.1260     2.8630    -0.6220 ho         1 K3B       0.515000
     50 H19          4.6060     4.6380     1.2030 ho         1 K3B       0.526000
@<TRIPOS>BOND
     1     1    20 ar  
     2     1    21 ar  
     3     1    33 1   
     4     2     3 ar  
     5     2     5 1   
     6     2    21 ar  
     7     3     4 ar  
     8     3    23 1   
     9     4    20 ar  
    10     4    22 1   
    11     5     6 1   
    12     5    11 1   
    13     6     7 1   
    14     6    31 1   
    15     6    34 1   
    16     7     8 1   
    17     7    29 1   
    18     7    35 1   
    19     8     9 1   
    20     8    30 1   
    21     8    36 1   
    22     9    10 1   
    23     9    31 1   
    24     9    37 1   
    25    10    32 1   
    26    10    38 1   
    27    10    39 1   
    28    11    23 2   
    29    11    40 1   
    30    12    13 1   
    31    12    32 1   
    32    12    41 1   
    33    12    42 1   
    34    13    14 3   
    35    14    15 1   
    36    15    24 1   
    37    15    27 2   
    38    16    19 ar  
    39    16    24 1   
    40    16    25 ar  
    41    17    25 ar  
    42    17    26 ar  
    43    17    43 1   
    44    18    19 ar  
    45    18    26 ar  
    46    18    28 1   
    47    19    27 1   
    48    22    44 1   
    49    22    45 1   
    50    24    46 1   
    51    28    47 1   
    52    28    48 1   
    53    29    49 1   
    54    30    50 1   
@<TRIPOS>SUBSTRUCTURE
     1 K3B         1 TEMP              0 ****  ****    0 ROOT
