@<TRIPOS>MOLECULE
K3B
   50    54     1     0     0
SMALL
abcg2


@<TRIPOS>ATOM
      1 C2           5.6990    -2.1090     1.6250 ca         1 K3B       0.183900
      2 C4           4.2380    -0.9300     0.4880 ca         1 K3B       0.142500
      3 C5           3.8950    -2.0110    -0.3090 ca         1 K3B      -0.102600
      4 C6           4.5730    -3.2160    -0.0490 ca         1 K3B       0.451900
      5 N9           3.4570     0.1000     0.0470 na         1 K3B      -0.290300
      6 C1           3.4420     1.4450     0.5660 c5         1 K3B       0.315300
      7 C7           3.9630     2.4950    -0.4160 c5         1 K3B       0.080300
      8 C3           3.2060     3.7420     0.0500 c5         1 K3B       0.112300
      9 C9           1.8530     3.1410     0.4090 c5         1 K3B       0.167300
     10 C10          0.9110     3.1240    -0.7780 c3         1 K3B       0.140600
     11 C8           2.6930    -0.4070    -0.9690 cc         1 K3B       0.410700
     12 CAP         -1.1910     2.3870    -1.4590 c3         1 K3B       0.243700
     13 CAQ         -2.3260     1.5750    -1.0490 c1         1 K3B      -0.080100
     14 CAR         -3.2730     0.9050    -0.7290 cg         1 K3B      -0.115200
     15 CAS         -4.3830     0.1130    -0.3490 cc         1 K3B       0.463700
     16 CAU         -5.9880    -0.6630     0.9210 ca         1 K3B       0.133500
     17 CAW         -7.7080    -1.8570     1.5810 ca         1 K3B       0.187900
     18 CAY         -6.9520    -2.2630    -0.5530 ca         1 K3B       0.453900
     19 CAZ         -5.9690    -1.2790    -0.3250 ca         1 K3B      -0.103600
     20 N1           5.4780    -3.2250     0.9370 nb         1 K3B      -0.303000
     21 N3           5.1340    -0.9230     1.4710 nb         1 K3B      -0.217000
     22 N6           4.3450    -4.3360    -0.7350 nv         1 K3B      -1.065900
     23 N7           2.9240    -1.6620    -1.2120 nd         1 K3B      -0.552100
     24 NAT         -4.9660     0.2280     0.8830 na         1 K3B      -0.394300
     25 NAV         -6.8400    -0.9180     1.9130 nb         1 K3B      -0.220000
     26 NAX         -7.8130    -2.5260     0.4350 nb         1 K3B      -0.304000
     27 NBA         -4.9620    -0.7870    -1.1020 nd         1 K3B      -0.526100
     28 NBB         -7.0440    -2.9350    -1.7000 nv         1 K3B      -1.059900
     29 O2           5.3530     2.5810    -0.3230 oh         1 K3B      -0.691000
     30 O3           3.7850     4.2780     1.2090 oh         1 K3B      -0.700000
     31 O4           2.1250     1.8120     0.8610 os         1 K3B      -0.427000
     32 O5          -0.2440     2.4080    -0.4220 os         1 K3B      -0.425000
     33 H1           6.4410    -2.1850     2.4120 h5         1 K3B       0.046100
     34 H2           4.0680     1.4290     1.4650 h2         1 K3B       0.125700
     35 H3           3.6440     2.2430    -1.4360 h1         1 K3B       0.051700
     36 H4           3.1210     4.4910    -0.7490 h1         1 K3B       0.053700
     37 H5           1.3850     3.6920     1.2300 h1         1 K3B       0.107700
     38 H6           0.6710     4.1620    -1.0450 h1         1 K3B       0.026700
     39 H7           1.3910     2.6720    -1.6600 h1         1 K3B       0.026700
     40 H8           1.9660     0.1980    -1.4900 h5         1 K3B       0.064800
     41 H9          -0.7710     1.9650    -2.3820 h1         1 K3B       0.045200
     42 H10         -1.5400     3.3990    -1.7070 h1         1 K3B       0.045200
     43 H11         -8.4370    -2.1210     2.3410 h5         1 K3B       0.048100
     44 H12          3.7000    -4.3540    -1.5050 hn         1 K3B       0.507000
     45 H13          4.8730    -5.1690    -0.5350 hn         1 K3B       0.507000
     46 H14         -4.6810     0.8540     1.6220 hn         1 K3B       0.378000
     47 H16         -7.7970    -3.5850    -1.8460 hn         1 K3B       0.507000
     48 H17         -6.4530    -2.7110    -2.4810 hn         1 K3B       0.507000
     49 H18          5.6980     2.9740    -1.1300 ho         1 K3B       0.515000
     50 H19          4.7380     4.3300     1.0680 ho         1 K3B       0.526000
@<TRIPOS>BOND
     1     1    20 ar  
     2     1    21 ar  
     3     1    33 1   
     4     2     3 ar  
     5     2     5 1   
     6     2    21 ar  
     7     3     4 ar  
     8     3    23 1   
     9     4    20 ar  
    10     4    22 1   
    11     5     6 1   
    12     5    11 1   
    13     6     7 1   
    14     6    31 1   
    15     6    34 1   
    16     7     8 1   
    17     7    29 1   
    18     7    35 1   
    19     8     9 1   
    20     8    30 1   
    21     8    36 1   
    22     9    10 1   
    23     9    31 1   
    24     9    37 1   
    25    10    32 1   
    26    10    38 1   
    27    10    39 1   
    28    11    23 2   
    29    11    40 1   
    30    12    13 1   
    31    12    32 1   
    32    12    41 1   
    33    12    42 1   
    34    13    14 3   
    35    14    15 1   
    36    15    24 1   
    37    15    27 2   
    38    16    19 ar  
    39    16    24 1   
    40    16    25 ar  
    41    17    25 ar  
    42    17    26 ar  
    43    17    43 1   
    44    18    19 ar  
    45    18    26 ar  
    46    18    28 1   
    47    19    27 1   
    48    22    44 1   
    49    22    45 1   
    50    24    46 1   
    51    28    47 1   
    52    28    48 1   
    53    29    49 1   
    54    30    50 1   
@<TRIPOS>SUBSTRUCTURE
     1 K3B         1 TEMP              0 ****  ****    0 ROOT
