@<TRIPOS>MOLECULE
K3C
   22    23     1     0     0
SMALL
abcg2


@<TRIPOS>ATOM
      1 C3         -19.5720   -62.9620    23.6650 cc         1 K3C      -0.238200
      2 C7         -18.5460   -60.8820    27.5370 ca         1 K3C      -0.079500
      3 C8         -18.4850   -60.3250    28.8050 ca         1 K3C      -0.113500
      4 C9         -18.5450   -61.1360    29.9310 ca         1 K3C      -0.095000
      5 C1         -17.9260   -64.5970    24.4270 c          1 K3C       0.547500
      6 C10        -18.6570   -62.5120    29.7840 ca         1 K3C      -0.113500
      7 C11        -18.7090   -63.0720    28.5170 ca         1 K3C      -0.079500
      8 C12        -17.9060   -63.9470    25.7480 cc         1 K3C      -0.248200
      9 C2         -18.8000   -64.0120    23.3900 cd         1 K3C      -0.235200
     10 C4         -19.6070   -62.3510    25.0100 c          1 K3C       0.549500
     11 C5         -18.6710   -62.8860    26.0450 cd         1 K3C      -0.068400
     12 C6         -18.6540   -62.2650    27.3800 ca         1 K3C      -0.067800
     13 O1         -17.2410   -65.5730    24.1960 o          1 K3C      -0.488100
     14 O2         -20.3910   -61.4630    25.2620 o          1 K3C      -0.479100
     15 H1         -20.2260   -62.5260    22.9200 ha         1 K3C       0.208000
     16 H3         -18.3900   -59.2530    28.9130 ha         1 K3C       0.116500
     17 H4         -18.5050   -60.6970    30.9200 ha         1 K3C       0.115000
     18 H5         -18.7090   -63.1510    30.6560 ha         1 K3C       0.116500
     19 H6         -18.8100   -64.1450    28.4080 ha         1 K3C       0.118000
     20 H7         -17.2210   -64.3640    26.4760 ha         1 K3C       0.209000
     21 H8         -18.7890   -64.4720    22.4100 ha         1 K3C       0.208000
     22 H2         -18.4800   -60.2370    26.6720 ha         1 K3C       0.118000
@<TRIPOS>BOND
     1     1     9 2   
     2     1    10 1   
     3     1    15 1   
     4     2     3 ar  
     5     2    12 ar  
     6     2    22 1   
     7     3     4 ar  
     8     3    16 1   
     9     4     6 ar  
    10     4    17 1   
    11     5     8 1   
    12     5     9 1   
    13     5    13 2   
    14     6     7 ar  
    15     6    18 1   
    16     7    12 ar  
    17     7    19 1   
    18     8    11 2   
    19     8    20 1   
    20     9    21 1   
    21    10    11 1   
    22    10    14 2   
    23    11    12 1   
@<TRIPOS>SUBSTRUCTURE
     1 K3C         1 TEMP              0 ****  ****    0 ROOT
