@<TRIPOS>MOLECULE
K3C
   22    23     1     0     0
SMALL
No Charge or Current Charge


@<TRIPOS>ATOM
      1 C3         -19.4690   -62.8870    23.5830 cc         1 K3C      -0.238200
      2 C7         -18.7250   -60.8370    27.5830 ca         1 K3C      -0.079500
      3 C8         -18.6840   -60.2960    28.8800 ca         1 K3C      -0.113500
      4 C9         -18.5530   -61.1380    29.9930 ca         1 K3C      -0.095000
      5 C1         -18.0570   -64.7450    24.4590 c          1 K3C       0.547500
      6 C10        -18.4560   -62.5240    29.8050 ca         1 K3C      -0.113500
      7 C11        -18.4940   -63.0660    28.5080 ca         1 K3C      -0.079500
      8 C12        -18.0490   -64.0500    25.7560 cc         1 K3C      -0.248200
      9 C2         -18.8030   -64.0810    23.3790 cd         1 K3C      -0.235200
     10 C4         -19.4740   -62.1910    24.8850 c          1 K3C       0.549500
     11 C5         -18.6670   -62.8220    25.9980 cd         1 K3C      -0.068400
     12 C6         -18.6370   -62.2340    27.3700 ca         1 K3C      -0.067800
     13 O1         -17.4790   -65.8070    24.2850 o          1 K3C      -0.488100
     14 O2         -20.1310   -61.1680    25.0170 o          1 K3C      -0.479100
     15 H1         -20.0390   -62.4040    22.7960 ha         1 K3C       0.208000
     16 H3         -18.7460   -59.2190    29.0200 ha         1 K3C       0.116500
     17 H4         -18.5220   -60.7190    30.9970 ha         1 K3C       0.115000
     18 H5         -18.3570   -63.1820    30.6650 ha         1 K3C       0.116500
     19 H6         -18.4450   -64.1470    28.4080 ha         1 K3C       0.118000
     20 H7         -17.4660   -64.5640    26.5090 ha         1 K3C       0.209000
     21 H8         -18.8020   -64.6000    22.4260 ha         1 K3C       0.208000
     22 H2         -18.7850   -60.1460    26.7480 ha         1 K3C       0.118000
@<TRIPOS>BOND
     1     1     9 2   
     2     1    10 1   
     3     1    15 1   
     4     2     3 ar  
     5     2    12 ar  
     6     2    22 1   
     7     3     4 ar  
     8     3    16 1   
     9     4     6 ar  
    10     4    17 1   
    11     5     8 1   
    12     5     9 1   
    13     5    13 2   
    14     6     7 ar  
    15     6    18 1   
    16     7    12 ar  
    17     7    19 1   
    18     8    11 2   
    19     8    20 1   
    20     9    21 1   
    21    10    11 1   
    22    10    14 2   
    23    11    12 1   
@<TRIPOS>SUBSTRUCTURE
     1 K3C         1 TEMP              0 ****  ****    0 ROOT
