@<TRIPOS>MOLECULE
K3D
   31    31     1     0     0
SMALL
abcg2


@<TRIPOS>ATOM
      1 N1           0.5670    -0.3640    -0.7030 n          1 K3D      -0.421800
      2 C4          -1.0290     1.1920     0.3090 c6         1 K3D       0.070000
      3 C5          -1.4970    -1.1880     0.3380 c6         1 K3D       0.070000
      4 C6          -0.4580    -1.3860    -0.7580 c6         1 K3D       0.083500
      5 C8          -4.3420    -0.6820     0.2020 c3         1 K3D      -0.176100
      6 N            2.7150     0.3340    -0.1590 ns         1 K3D      -0.504900
      7 C            4.8620     1.3600     0.3520 c3         1 K3D      -0.109100
      8 O            2.0720    -1.7980     0.2160 o          1 K3D      -0.642100
      9 C1           4.0820     0.0630     0.2420 c3         1 K3D       0.103000
     10 C2           1.7990    -0.6720    -0.1890 c          1 K3D       0.645100
     11 C3           0.0100     0.9750    -0.7840 c6         1 K3D       0.083500
     12 N2          -2.0420     0.1540     0.2690 n          1 K3D      -0.416800
     13 O1          -3.7490     1.6240     0.1620 o          1 K3D      -0.607100
     14 H1          -0.5330     1.1770     1.2860 h1         1 K3D       0.062950
     15 H2          -1.4970     2.1650     0.1870 h1         1 K3D       0.062950
     16 H3          -2.2790    -1.9330     0.2250 h1         1 K3D       0.062950
     17 H4          -1.0340    -1.3460     1.3180 h1         1 K3D       0.062950
     18 H5          -0.9520    -1.3330    -1.7330 h1         1 K3D       0.062700
     19 H6          -0.0090    -2.3720    -0.6690 h1         1 K3D       0.062700
     20 H7          -4.1990    -1.3440    -0.6520 hc         1 K3D       0.060700
     21 H8          -4.2600    -1.2900     1.1040 hc         1 K3D       0.060700
     22 H9          -5.3500    -0.2780     0.1550 hc         1 K3D       0.060700
     23 H10          2.5990     1.1090    -0.7920 hn         1 K3D       0.302500
     24 H11          5.8880     1.1550     0.6560 hc         1 K3D       0.041033
     25 H12          4.9020     1.8850    -0.6040 hc         1 K3D       0.041033
     26 H13          4.4170     2.0290     1.0890 hc         1 K3D       0.041033
     27 H14          4.0730    -0.4430     1.2080 h1         1 K3D       0.051200
     28 H15          4.5800    -0.6100    -0.4640 h1         1 K3D       0.051200
     29 H16          0.7750     1.7400    -0.6860 h1         1 K3D       0.062700
     30 H17         -0.4530     1.1090    -1.7660 h1         1 K3D       0.062700
     31 C7          -3.3570     0.4640     0.2070 c          1 K3D       0.609100
@<TRIPOS>BOND
     1     1     4 1   
     2     1    10 1   
     3     1    11 1   
     4     2    11 1   
     5     2    12 1   
     6     2    14 1   
     7     2    15 1   
     8     3     4 1   
     9     3    12 1   
    10     3    16 1   
    11     3    17 1   
    12     4    18 1   
    13     4    19 1   
    14     5    20 1   
    15     5    21 1   
    16     5    22 1   
    17     5    31 1   
    18     6     9 1   
    19     6    10 1   
    20     6    23 1   
    21     7     9 1   
    22     7    24 1   
    23     7    25 1   
    24     7    26 1   
    25     8    10 2   
    26     9    27 1   
    27     9    28 1   
    28    11    29 1   
    29    11    30 1   
    30    12    31 1   
    31    13    31 2   
@<TRIPOS>SUBSTRUCTURE
     1 K3D         1 TEMP              0 ****  ****    0 ROOT
