@<TRIPOS>MOLECULE
K3D
   31    31     1     0     0
SMALL
No Charge or Current Charge


@<TRIPOS>ATOM
      1 N1           0.6670    -0.4690     0.0530 n          1 K3D      -0.421800
      2 C4          -1.2510     1.2130     0.3670 c6         1 K3D       0.070000
      3 C5          -1.7810    -1.2060     0.3150 c6         1 K3D       0.070000
      4 C6          -0.3570    -1.5180    -0.2040 c6         1 K3D       0.083500
      5 C8          -4.6650    -0.5870    -0.2340 c3         1 K3D      -0.176100
      6 N            2.9210     0.2420    -0.0300 ns         1 K3D      -0.504900
      7 C            5.0790     1.4600    -0.1090 c3         1 K3D      -0.109100
      8 O            2.4170    -1.9650    -0.0900 o          1 K3D      -0.642100
      9 C1           4.3730     0.0950    -0.1070 c3         1 K3D       0.103000
     10 C2           2.0340    -0.8060    -0.0280 c          1 K3D       0.645100
     11 C3           0.1830     0.9300    -0.1430 c6         1 K3D       0.083500
     12 N2          -2.2590     0.1740     0.0260 n          1 K3D      -0.416800
     13 O1          -4.0070     1.6360     0.3480 o          1 K3D      -0.607100
     14 H1          -1.2170     1.3090     1.4610 h1         1 K3D       0.062950
     15 H2          -1.5690     2.1880    -0.0300 h1         1 K3D       0.062950
     16 H3          -2.4610    -1.9540    -0.1130 h1         1 K3D       0.062950
     17 H4          -1.7920    -1.3500     1.4050 h1         1 K3D       0.062950
     18 H5          -0.4130    -1.6740    -1.2910 h1         1 K3D       0.062700
     19 H6          -0.0340    -2.4720     0.2370 h1         1 K3D       0.062700
     20 H7          -4.3620    -1.1100    -1.1470 hc         1 K3D       0.060700
     21 H8          -4.6130    -1.3720     0.5280 hc         1 K3D       0.060700
     22 H9          -5.6820    -0.1880    -0.3110 hc         1 K3D       0.060700
     23 H10          2.5330     1.1720     0.0290 hn         1 K3D       0.302500
     24 H11          6.1650     1.3260    -0.1680 hc         1 K3D       0.041033
     25 H12          4.7590     2.0600    -0.9700 hc         1 K3D       0.041033
     26 H13          4.8500     2.0160     0.8080 hc         1 K3D       0.041033
     27 H14          4.7180    -0.4950     0.7530 h1         1 K3D       0.051200
     28 H15          4.6280    -0.4510    -1.0250 h1         1 K3D       0.051200
     29 H16          0.8530     1.6420     0.3570 h1         1 K3D       0.062700
     30 H17          0.2180     1.1530    -1.2190 h1         1 K3D       0.062700
     31 C7          -3.6360     0.4970     0.0970 c          1 K3D       0.609100
@<TRIPOS>BOND
     1     1     4 1   
     2     1    10 1   
     3     1    11 1   
     4     2    11 1   
     5     2    12 1   
     6     2    14 1   
     7     2    15 1   
     8     3     4 1   
     9     3    12 1   
    10     3    16 1   
    11     3    17 1   
    12     4    18 1   
    13     4    19 1   
    14     5    20 1   
    15     5    21 1   
    16     5    22 1   
    17     5    31 1   
    18     6     9 1   
    19     6    10 1   
    20     6    23 1   
    21     7     9 1   
    22     7    24 1   
    23     7    25 1   
    24     7    26 1   
    25     8    10 2   
    26     9    27 1   
    27     9    28 1   
    28    11    29 1   
    29    11    30 1   
    30    12    31 1   
    31    13    31 2   
@<TRIPOS>SUBSTRUCTURE
     1 K3D         1 TEMP              0 ****  ****    0 ROOT
