@<TRIPOS>MOLECULE
K3E
   68    73     1     0     0
SMALL
abcg2


@<TRIPOS>ATOM
      1 C2           6.7640    -0.3380     2.5200 ca         1 K3E       0.187900
      2 C4           5.1760    -0.2970     1.0080 ca         1 K3E       0.125500
      3 C5           5.5420    -1.5320     0.4960 ca         1 K3E      -0.100600
      4 C6           6.6350    -2.1620     1.1200 ca         1 K3E       0.453900
      5 N9           4.1090     0.1010     0.2570 na         1 K3E      -0.313300
      6 C1           3.3940     1.3540     0.4410 c5         1 K3E       0.319300
      7 C7           4.1220     2.5320    -0.2020 c5         1 K3E       0.105300
      8 C3           3.4950     2.5410    -1.6000 c5         1 K3E       0.092300
      9 C9           2.0480     2.1640    -1.2940 c5         1 K3E       0.164300
     10 C10          1.3490     1.5150    -2.4610 c3         1 K3E       0.159600
     11 C8           3.8870    -0.8970    -0.6530 cc         1 K3E       0.407700
     12 CAP         -0.7160     0.5570    -3.0690 c3         1 K3E       0.251700
     13 CAQ         -1.9640     0.1270    -2.4540 c1         1 K3E      -0.112100
     14 CAR         -2.9610    -0.2390    -1.8880 cg         1 K3E      -0.084200
     15 CAS         -4.1300    -0.7230    -1.2560 cc         1 K3E       0.467700
     16 CAU         -5.5430    -1.2680     0.3270 ca         1 K3E       0.148500
     17 CAW         -7.3360    -2.0520     1.3220 ca         1 K3E       0.188900
     18 CAY         -7.2820    -2.2380    -0.9700 ca         1 K3E       0.454900
     19 CAZ         -6.0200    -1.6130    -0.9270 ca         1 K3E      -0.102600
     20 CBC         -3.4800    -0.1460     1.1460 c5         1 K3E       0.304300
     21 CBE         -2.0590     1.6460     1.3650 c5         1 K3E       0.148300
     22 CBF         -1.6900     2.9570     0.7110 c3         1 K3E       0.156800
     23 CBH         -1.1630     0.4730     0.9790 c5         1 K3E       0.093300
     24 CBJ         -2.0590    -0.7420     1.2520 c5         1 K3E       0.125300
     25 N1           7.2250    -1.5260     2.1390 nb         1 K3E      -0.300000
     26 N3           5.7530     0.3500     2.0180 nb         1 K3E      -0.222000
     27 N6           7.1030    -3.3480     0.7310 nv         1 K3E      -1.060900
     28 N7           4.7210    -1.8890    -0.5410 nd         1 K3E      -0.549100
     29 NAT         -4.3200    -0.6990     0.1100 na         1 K3E      -0.267300
     30 NAV         -6.1630    -1.4640     1.4860 nb         1 K3E      -0.214000
     31 NAX         -7.9150    -2.4420     0.1910 nb         1 K3E      -0.304000
     32 NBA         -5.1310    -1.2640    -1.9000 nd         1 K3E      -0.531100
     33 NBB         -7.8550    -2.6240    -2.1080 nv         1 K3E      -1.062900
     34 NBG         -2.5400     4.0400     1.1740 n8         1 K3E      -0.992200
     35 O2           3.7710     3.6840     0.5110 oh         1 K3E      -0.698000
     36 O3           3.5460     3.7850    -2.2350 oh         1 K3E      -0.706000
     37 O4           2.1440     1.2600    -0.1860 os         1 K3E      -0.463000
     38 O5           0.0120     1.2730    -2.1040 os         1 K3E      -0.454000
     39 OBD         -3.3450     1.2320     0.9190 os         1 K3E      -0.454000
     40 OBI          0.0350     0.4250     1.7030 oh         1 K3E      -0.721000
     41 OBK         -1.8990    -1.2280     2.5580 oh         1 K3E      -0.708000
     42 H1           7.2880     0.1200     3.3520 h5         1 K3E       0.050100
     43 H2           3.2750     1.5020     1.5170 h2         1 K3E       0.133700
     44 H3           5.2070     2.3770    -0.2270 h1         1 K3E       0.081700
     45 H4           3.9630     1.7570    -2.2100 h1         1 K3E       0.056700
     46 H5           1.4890     3.0540    -0.9820 h1         1 K3E       0.096700
     47 H6           1.4150     2.1950    -3.3210 h1         1 K3E       0.038200
     48 H7           1.8580     0.5840    -2.7460 h1         1 K3E       0.038200
     49 H8           3.0850    -0.8500    -1.3710 h5         1 K3E       0.067800
     50 H9          -0.1660    -0.3290    -3.4120 h1         1 K3E       0.048700
     51 H10         -0.9250     1.1650    -3.9590 h1         1 K3E       0.048700
     52 H11         -7.9030    -2.2440     2.2260 h5         1 K3E       0.049100
     53 H12         -4.0110    -0.3470     2.0820 h2         1 K3E       0.120700
     54 H13         -2.0580     1.7740     2.4580 h1         1 K3E       0.083700
     55 H14         -0.6600     3.1780     1.0020 h1         1 K3E       0.039200
     56 H15         -1.6850     2.8170    -0.3790 h1         1 K3E       0.039200
     57 H16         -0.9700     0.5250    -0.0910 h1         1 K3E       0.069700
     58 H17         -1.9000    -1.5370     0.5130 h1         1 K3E       0.061700
     59 H18          6.6380    -3.8800     0.0160 hn         1 K3E       0.508000
     60 H19          7.8450    -3.7920     1.2450 hn         1 K3E       0.508000
     61 H20         -8.7490    -3.0850    -2.0970 hn         1 K3E       0.507500
     62 H21         -7.3960    -2.4940    -2.9920 hn         1 K3E       0.507500
     63 H22         -2.2000     4.9160     0.8000 hn         1 K3E       0.398500
     64 H23         -3.4720     3.9270     0.7940 hn         1 K3E       0.398500
     65 H25          3.8280     4.4350    -0.0920 ho         1 K3E       0.527000
     66 H26          4.3860     3.8660    -2.6970 ho         1 K3E       0.522000
     67 H27          0.7570     0.6210     1.0930 ho         1 K3E       0.534000
     68 H28         -0.9530    -1.2440     2.7480 ho         1 K3E       0.531000
@<TRIPOS>BOND
     1     1    25 ar  
     2     1    26 ar  
     3     1    42 1   
     4     2     3 ar  
     5     2     5 1   
     6     2    26 ar  
     7     3     4 ar  
     8     3    28 1   
     9     4    25 ar  
    10     4    27 1   
    11     5     6 1   
    12     5    11 1   
    13     6     7 1   
    14     6    37 1   
    15     6    43 1   
    16     7     8 1   
    17     7    35 1   
    18     7    44 1   
    19     8     9 1   
    20     8    36 1   
    21     8    45 1   
    22     9    10 1   
    23     9    37 1   
    24     9    46 1   
    25    10    38 1   
    26    10    47 1   
    27    10    48 1   
    28    11    28 2   
    29    11    49 1   
    30    12    13 1   
    31    12    38 1   
    32    12    50 1   
    33    12    51 1   
    34    13    14 3   
    35    14    15 1   
    36    15    29 1   
    37    15    32 2   
    38    16    19 ar  
    39    16    29 1   
    40    16    30 ar  
    41    17    30 ar  
    42    17    31 ar  
    43    17    52 1   
    44    18    19 ar  
    45    18    31 ar  
    46    18    33 1   
    47    19    32 1   
    48    20    24 1   
    49    20    29 1   
    50    20    39 1   
    51    20    53 1   
    52    21    22 1   
    53    21    23 1   
    54    21    39 1   
    55    21    54 1   
    56    22    34 1   
    57    22    55 1   
    58    22    56 1   
    59    23    24 1   
    60    23    40 1   
    61    23    57 1   
    62    24    41 1   
    63    24    58 1   
    64    27    59 1   
    65    27    60 1   
    66    33    61 1   
    67    33    62 1   
    68    34    63 1   
    69    34    64 1   
    70    35    65 1   
    71    36    66 1   
    72    40    67 1   
    73    41    68 1   
@<TRIPOS>SUBSTRUCTURE
     1 K3E         1 TEMP              0 ****  ****    0 ROOT
