@<TRIPOS>MOLECULE
K3E
   68    73     1     0     0
SMALL
No Charge or Current Charge


@<TRIPOS>ATOM
      1 C2           3.2440    -0.2670     3.5470 ca         1 K3E       0.187900
      2 C4           3.8920     0.3020     1.4300 ca         1 K3E       0.125500
      3 C5           4.8190    -0.7090     1.4400 ca         1 K3E      -0.100600
      4 C6           4.9150    -1.5090     2.5980 ca         1 K3E       0.453900
      5 N9           4.0130     0.8960     0.2060 na         1 K3E      -0.313300
      6 C1           3.2640     2.0540    -0.2760 c5         1 K3E       0.319300
      7 C7           4.0270     3.0740    -1.2060 c5         1 K3E       0.105300
      8 C3           3.4330     2.7260    -2.6010 c5         1 K3E       0.092300
      9 C9           1.9630     2.4230    -2.1900 c5         1 K3E       0.164300
     10 C10          1.1040     1.7400    -3.2850 c3         1 K3E       0.159600
     11 C8           5.0220     0.2210    -0.4900 cc         1 K3E       0.407700
     12 CAP         -1.1390     0.8680    -3.6360 c3         1 K3E       0.251700
     13 CAQ         -2.2550     0.3820    -2.8180 c1         1 K3E      -0.112100
     14 CAR         -3.1180    -0.0420    -2.0740 cg         1 K3E      -0.084200
     15 CAS         -4.0850    -0.5650    -1.1680 cc         1 K3E       0.467700
     16 CAU         -5.0670    -1.4040     0.6430 ca         1 K3E       0.148500
     17 CAW         -6.7460    -2.1990     1.9800 ca         1 K3E       0.188900
     18 CAY         -7.3260    -1.5120    -0.1230 ca         1 K3E       0.454900
     19 CAZ         -5.9760    -1.1880    -0.3640 ca         1 K3E      -0.102600
     20 CBC         -2.5760    -1.1070     0.8680 c5         1 K3E       0.304300
     21 CBE         -0.8160     0.2940     1.4890 c5         1 K3E       0.148300
     22 CBF         -0.3880     1.7750     1.6950 c3         1 K3E       0.156800
     23 CBH         -0.3910    -0.3250     0.1290 c5         1 K3E       0.093300
     24 CBJ         -1.2830    -1.6010     0.1050 c5         1 K3E       0.125300
     25 N1           4.1220    -1.2930     3.6600 nb         1 K3E      -0.300000
     26 N3           3.0870     0.5530     2.4800 nb         1 K3E      -0.222000
     27 N6           5.7980    -2.5370     2.7070 nv         1 K3E      -1.060900
     28 N7           5.5410    -0.7800     0.2450 nd         1 K3E      -0.549100
     29 NAT         -3.8550    -1.0130     0.1460 na         1 K3E      -0.267300
     30 NAV         -5.4290    -1.9140     1.8370 nb         1 K3E      -0.214000
     31 NAX         -7.7190    -2.0240     1.0540 nb         1 K3E      -0.304000
     32 NBA         -5.3810    -0.6620    -1.5120 nd         1 K3E      -0.531100
     33 NBB         -8.3000    -1.3380    -1.0550 nv         1 K3E      -1.062900
     34 NBG         -0.9020     2.3440     2.9670 n8         1 K3E      -0.992200
     35 O2           3.7230     4.4460    -0.9180 oh         1 K3E      -0.698000
     36 O3           3.5730     3.8410    -3.5050 oh         1 K3E      -0.706000
     37 O4           2.1340     1.5580    -1.0400 os         1 K3E      -0.463000
     38 O5          -0.2160     1.5280    -2.7540 os         1 K3E      -0.454000
     39 OBD         -2.2560     0.1870     1.4320 os         1 K3E      -0.454000
     40 OBI          1.0030    -0.6690     0.0370 oh         1 K3E      -0.721000
     41 OBK         -0.5670    -2.6260     0.8010 oh         1 K3E      -0.708000
     42 H1           2.5980    -0.0810     4.4040 h5         1 K3E       0.050100
     43 H2           2.9110     2.5840     0.6190 h2         1 K3E       0.133700
     44 H3           5.1140     2.9120    -1.1820 h1         1 K3E       0.081700
     45 H4           3.9130     1.8260    -3.0120 h1         1 K3E       0.056700
     46 H5           1.4470     3.3400    -1.8710 h1         1 K3E       0.096700
     47 H6           1.0640     2.3870    -4.1710 h1         1 K3E       0.038200
     48 H7           1.5700     0.7880    -3.5690 h1         1 K3E       0.038200
     49 H8           5.3210     0.4930    -1.4950 h5         1 K3E       0.067800
     50 H9          -0.6680     0.0080    -4.1310 h1         1 K3E       0.048700
     51 H10         -1.5110     1.5570    -4.4060 h1         1 K3E       0.048700
     52 H11         -7.0530    -2.6130     2.9390 h5         1 K3E       0.049100
     53 H12         -2.7620    -1.8130     1.6880 h2         1 K3E       0.120700
     54 H13         -0.4430    -0.3070     2.3320 h1         1 K3E       0.083700
     55 H14          0.7070     1.8480     1.6880 h1         1 K3E       0.039200
     56 H15         -0.7760     2.3730     0.8590 h1         1 K3E       0.039200
     57 H16         -0.6690     0.3600    -0.6760 h1         1 K3E       0.069700
     58 H17         -1.5020    -1.9230    -0.9220 h1         1 K3E       0.061700
     59 H18          6.2400    -2.8490     1.8450 hn         1 K3E       0.508000
     60 H19          5.6230    -3.2480     3.4110 hn         1 K3E       0.508000
     61 H20         -9.1700    -1.8500    -0.9370 hn         1 K3E       0.507500
     62 H21         -7.9990    -1.1650    -2.0110 hn         1 K3E       0.507500
     63 H22         -0.7620     3.3610     2.9620 hn         1 K3E       0.398500
     64 H23         -1.9240     2.2380     2.9700 hn         1 K3E       0.398500
     65 H25          3.6380     4.8420    -1.8250 ho         1 K3E       0.527000
     66 H26          3.6200     3.4820    -4.4250 ho         1 K3E       0.522000
     67 H27          1.4650     0.1170    -0.3700 ho         1 K3E       0.534000
     68 H28          0.3690    -2.2980     0.7140 ho         1 K3E       0.531000
@<TRIPOS>BOND
     1     1    25 ar  
     2     1    26 ar  
     3     1    42 1   
     4     2     3 ar  
     5     2     5 1   
     6     2    26 ar  
     7     3     4 ar  
     8     3    28 1   
     9     4    25 ar  
    10     4    27 1   
    11     5     6 1   
    12     5    11 1   
    13     6     7 1   
    14     6    37 1   
    15     6    43 1   
    16     7     8 1   
    17     7    35 1   
    18     7    44 1   
    19     8     9 1   
    20     8    36 1   
    21     8    45 1   
    22     9    10 1   
    23     9    37 1   
    24     9    46 1   
    25    10    38 1   
    26    10    47 1   
    27    10    48 1   
    28    11    28 2   
    29    11    49 1   
    30    12    13 1   
    31    12    38 1   
    32    12    50 1   
    33    12    51 1   
    34    13    14 3   
    35    14    15 1   
    36    15    29 1   
    37    15    32 2   
    38    16    19 ar  
    39    16    29 1   
    40    16    30 ar  
    41    17    30 ar  
    42    17    31 ar  
    43    17    52 1   
    44    18    19 ar  
    45    18    31 ar  
    46    18    33 1   
    47    19    32 1   
    48    20    24 1   
    49    20    29 1   
    50    20    39 1   
    51    20    53 1   
    52    21    22 1   
    53    21    23 1   
    54    21    39 1   
    55    21    54 1   
    56    22    34 1   
    57    22    55 1   
    58    22    56 1   
    59    23    24 1   
    60    23    40 1   
    61    23    57 1   
    62    24    41 1   
    63    24    58 1   
    64    27    59 1   
    65    27    60 1   
    66    33    61 1   
    67    33    62 1   
    68    34    63 1   
    69    34    64 1   
    70    35    65 1   
    71    36    66 1   
    72    40    67 1   
    73    41    68 1   
@<TRIPOS>SUBSTRUCTURE
     1 K3E         1 TEMP              0 ****  ****    0 ROOT
