@<TRIPOS>MOLECULE
K3H
   71    76     1     0     0
SMALL
No Charge or Current Charge


@<TRIPOS>ATOM
      1 C4          18.8090     7.4980     9.0130 ca         1 K3H       0.156500
      2 C5          19.0040     6.1410     9.0630 ca         1 K3H      -0.095600
      3 C6          20.3080     5.6690     9.3130 ca         1 K3H       0.450900
      4 C8          16.9010     6.3940     8.6840 cc         1 K3H       0.405700
      5 N1          21.3320     6.5180     9.4960 nb         1 K3H      -0.289000
      6 N3          19.8150     8.3790     9.1810 nb         1 K3H      -0.216000
      7 C1          19.3100     8.1690    13.0520 c5         1 K3H       0.313300
      8 C2          21.0330     7.8370     9.4180 ca         1 K3H       0.182900
      9 C10         18.6080     7.9160    14.4230 c5         1 K3H       0.086300
     10 C3          18.1260     6.4580    14.1660 c5         1 K3H       0.120300
     11 C7          17.6800     6.5380    12.6550 c5         1 K3H       0.145300
     12 C9          16.1440     6.6780    12.4250 c3         1 K3H       0.172600
     13 CAA         12.9230     9.2490    12.8140 c3         1 K3H       0.142100
     14 CAI         16.2990    10.7800    12.8970 c1         1 K3H      -0.101100
     15 CAJ         17.5110    10.7330    12.8170 cg         1 K3H      -0.093200
     16 CAL         23.2650     9.9800    12.0760 ca         1 K3H       0.180900
     17 CAO         14.8310    10.7980    12.9360 c3         1 K3H       0.247900
     18 CAP         14.0140     9.9160    10.7260 c3         1 K3H       0.164800
     19 CAZ         22.1420    11.9710    11.9660 ca         1 K3H       0.447900
     20 CBA         18.9260    10.6790    12.6620 cc         1 K3H       0.481700
     21 CBC         20.9460    11.2840    12.2570 ca         1 K3H      -0.090600
     22 CBE         21.0070     9.9260    12.4430 ca         1 K3H       0.148500
     23 CBG         14.9550    10.4110     8.3330 c5         1 K3H       0.140300
     24 CBH         15.4820     9.0350     7.8240 c5         1 K3H       0.143300
     25 CBK         15.2590    10.3030     9.8730 c5         1 K3H       0.119300
     26 CBL         16.7670     8.9420     8.7030 c5         1 K3H       0.270300
     27 N6          20.6070     4.3430     9.3850 nv         1 K3H      -1.067900
     28 N7          17.8200     5.4240     8.8560 nd         1 K3H      -0.552100
     29 N9          17.4740     7.6660     8.7820 na         1 K3H      -0.287300
     30 NAR         23.3110    11.3190    11.8700 nb         1 K3H      -0.304000
     31 NAT         22.1660     9.2420    12.3620 nb         1 K3H      -0.213000
     32 NAV         19.6460    11.7810    12.3870 nd         1 K3H      -0.532100
     33 NBP         19.7260     9.5280    12.7030 na         1 K3H      -0.264300
     34 O2          19.4880     7.9810    15.5690 oh         1 K3H      -0.709000
     35 O3          19.2220     5.5590    14.3850 oh         1 K3H      -0.723000
     36 O4          18.3690     7.6840    12.0870 os         1 K3H      -0.454000
     37 O5          15.5290     7.5900    13.3520 oh         1 K3H      -0.780000
     38 OAF         15.6750    11.4810     7.7040 oh         1 K3H      -0.682000
     39 OAG         15.7250     9.0550     6.4030 oh         1 K3H      -0.674000
     40 OAX         16.2900     9.2880    10.0110 os         1 K3H      -0.441000
     41 H1          15.8430     6.2430     8.5120 h5         1 K3H       0.061800
     42 H2          20.2180     7.5540    12.9970 h2         1 K3H       0.110700
     43 H3          21.8570     8.5340     9.5570 h5         1 K3H       0.048100
     44 H4          17.7460     8.5840    14.5540 h1         1 K3H       0.075700
     45 H5          17.2830     6.1980    14.8220 h1         1 K3H       0.073700
     46 H6          18.0120     5.6410    12.1130 h1         1 K3H       0.083700
     47 H7          15.6940     5.6820    12.5350 h1         1 K3H       0.044200
     48 H8          15.9660     7.0000    11.3900 h1         1 K3H       0.044200
     49 H9          13.0660     8.9880    13.8710 h1         1 K3H       0.043367
     50 H10         12.1810    10.0570    12.7590 h1         1 K3H       0.043367
     51 H11         12.5110     8.3680    12.3050 h1         1 K3H       0.043367
     52 H12         24.2080     9.4410    12.0030 h5         1 K3H       0.050100
     53 H13         14.4700    11.7630    12.5540 h1         1 K3H       0.057200
     54 H14         14.5500    10.7540    13.9970 h1         1 K3H       0.057200
     55 H15         13.2730    10.7170    10.5950 h1         1 K3H       0.042700
     56 H16         13.5800     9.0170    10.2690 h1         1 K3H       0.042700
     57 H17         13.8790    10.5160     8.1410 h1         1 K3H       0.051700
     58 H18         14.7710     8.2380     8.0810 h1         1 K3H       0.039700
     59 H19         15.6520    11.2590    10.2430 h1         1 K3H       0.071700
     60 H20         17.5020     9.6870     8.3700 h2         1 K3H       0.119700
     61 H21         21.4710     4.0720     9.8460 hn         1 K3H       0.506500
     62 H22         19.8250     3.6970     9.4580 hn         1 K3H       0.506500
     63 H23         22.9980    13.6950    11.2780 hn         1 K3H       0.508500
     64 H24         21.3010    13.7900    11.6100 hn         1 K3H       0.508500
     65 H26         19.6220     8.9340    15.7890 ho         1 K3H       0.512000
     66 H27         19.7500     6.0210    15.0850 ho         1 K3H       0.520000
     67 H28         15.1360     8.3440    12.8140 ho         1 K3H       0.554000
     68 H29         15.8580    11.1450     6.7930 ho         1 K3H       0.501000
     69 H30         15.9210     8.1310     6.1190 ho         1 K3H       0.512000
     70 NBN         14.2060     9.6650    12.1910 n3         1 K3H      -0.716600
     71 NAC         22.1880    13.3140    11.7590 nv         1 K3H      -1.066900
@<TRIPOS>BOND
     1     1     2 ar  
     2     1     6 ar  
     3     1    29 1   
     4     2     3 ar  
     5     2    28 1   
     6     3     5 ar  
     7     3    27 1   
     8     4    28 2   
     9     4    29 1   
    10     4    41 1   
    11     5     8 ar  
    12     6     8 ar  
    13     7     9 1   
    14     7    33 1   
    15     7    36 1   
    16     7    42 1   
    17     8    43 1   
    18     9    10 1   
    19     9    34 1   
    20     9    44 1   
    21    10    11 1   
    22    10    35 1   
    23    10    45 1   
    24    11    12 1   
    25    11    36 1   
    26    11    46 1   
    27    12    37 1   
    28    12    47 1   
    29    12    48 1   
    30    13    49 1   
    31    13    50 1   
    32    13    51 1   
    33    13    70 1   
    34    14    15 3   
    35    14    17 1   
    36    15    20 1   
    37    16    30 ar  
    38    16    31 ar  
    39    16    52 1   
    40    17    53 1   
    41    17    54 1   
    42    17    70 1   
    43    18    25 1   
    44    18    55 1   
    45    18    56 1   
    46    18    70 1   
    47    19    21 ar  
    48    19    30 ar  
    49    19    71 1   
    50    20    32 2   
    51    20    33 1   
    52    21    22 ar  
    53    21    32 1   
    54    22    31 ar  
    55    22    33 1   
    56    23    24 1   
    57    23    25 1   
    58    23    38 1   
    59    23    57 1   
    60    24    26 1   
    61    24    39 1   
    62    24    58 1   
    63    25    40 1   
    64    25    59 1   
    65    26    29 1   
    66    26    40 1   
    67    26    60 1   
    68    27    61 1   
    69    27    62 1   
    70    34    65 1   
    71    35    66 1   
    72    37    67 1   
    73    38    68 1   
    74    39    69 1   
    75    63    71 1   
    76    64    71 1   
@<TRIPOS>SUBSTRUCTURE
     1 K3H         1 TEMP              0 ****  ****    0 ROOT
