@<TRIPOS>MOLECULE
K3H
   71    76     1     0     0
SMALL
abcg2


@<TRIPOS>ATOM
      1 C4          19.0040     7.7200     9.0430 ca         1 K3H       0.156500
      2 C5          19.2980     6.3640     9.1500 ca         1 K3H      -0.095600
      3 C6          20.6540     6.0260     9.3220 ca         1 K3H       0.450900
      4 C8          17.1760     6.4880     8.9530 cc         1 K3H       0.405700
      5 N1          21.5570     7.0260     9.3490 nb         1 K3H      -0.289000
      6 N3          19.8840     8.7250     9.0750 nb         1 K3H      -0.216000
      7 C1          19.2100     8.0700    13.1450 c5         1 K3H       0.313300
      8 C2          21.1320     8.2880     9.2270 ca         1 K3H       0.182900
      9 C10         18.4740     8.0190    14.4790 c5         1 K3H       0.086300
     10 C3          17.8900     6.5990    14.4170 c5         1 K3H       0.120300
     11 C7          17.5890     6.4170    12.9230 c5         1 K3H       0.145300
     12 C9          16.1140     6.4860    12.5730 c3         1 K3H       0.172600
     13 CAA         12.8430     9.4180    12.7860 c3         1 K3H       0.142100
     14 CAI         16.2710    10.7230    12.6860 c1         1 K3H      -0.101100
     15 CAJ         17.4620    10.5980    12.5730 cg         1 K3H      -0.093200
     16 CAL         23.0910     9.5260    11.9850 ca         1 K3H       0.180900
     17 CAO         14.8200    10.8060    12.8040 c3         1 K3H       0.247900
     18 CAP         13.9150     9.8980    10.6980 c3         1 K3H       0.164800
     19 CAZ         22.0980    11.5300    11.3960 ca         1 K3H       0.447900
     20 CBA         18.8530    10.5020    12.3690 cc         1 K3H       0.481700
     21 CBC         20.8740    10.9830    11.8360 ca         1 K3H      -0.090600
     22 CBE         20.9100     9.6790    12.3220 ca         1 K3H       0.148500
     23 CBG         14.9260    10.2640     8.3640 c5         1 K3H       0.140300
     24 CBH         15.8020     9.1320     7.8000 c5         1 K3H       0.143300
     25 CBK         15.1700    10.1500     9.8960 c5         1 K3H       0.119300
     26 CBL         16.8630     8.9980     8.8960 c5         1 K3H       0.270300
     27 N6          21.0800     4.7600     9.4520 nv         1 K3H      -1.067900
     28 N7          18.1370     5.6100     9.0930 nd         1 K3H      -0.552100
     29 N9          17.6340     7.7880     8.9040 na         1 K3H      -0.287300
     30 NAR         23.2010    10.7620    11.4860 nb         1 K3H      -0.304000
     31 NAT         21.9960     8.9080    12.4240 nb         1 K3H      -0.213000
     32 NAV         19.5930    11.4790    11.8710 nd         1 K3H      -0.532100
     33 NBP         19.6120     9.3700    12.6640 na         1 K3H      -0.264300
     34 O2          19.3810     8.2130    15.5500 oh         1 K3H      -0.709000
     35 O3          18.8710     5.6450    14.8150 oh         1 K3H      -0.723000
     36 O4          18.3200     7.4640    12.2310 os         1 K3H      -0.454000
     37 O5          15.4330     7.5020    13.2880 oh         1 K3H      -0.780000
     38 OAF         15.3750    11.5090     7.8450 oh         1 K3H      -0.682000
     39 OAG         16.3060     9.4140     6.5160 oh         1 K3H      -0.674000
     40 OAX         16.0930     9.0680    10.0810 os         1 K3H      -0.441000
     41 H1          16.1250     6.2570     8.8840 h5         1 K3H       0.061800
     42 H2          20.1410     7.5030    13.2320 h2         1 K3H       0.110700
     43 H3          21.9040     9.0480     9.2610 h5         1 K3H       0.048100
     44 H4          17.6680     8.7520    14.4940 h1         1 K3H       0.075700
     45 H5          16.9920     6.5010    15.0280 h1         1 K3H       0.073700
     46 H6          17.9850     5.4530    12.5920 h1         1 K3H       0.083700
     47 H7          15.6740     5.5160    12.8300 h1         1 K3H       0.044200
     48 H8          16.0130     6.6270    11.4950 h1         1 K3H       0.044200
     49 H9          13.0090     9.1730    13.8340 h1         1 K3H       0.043367
     50 H10         12.1610    10.2780    12.7260 h1         1 K3H       0.043367
     51 H11         12.3690     8.5660    12.3000 h1         1 K3H       0.043367
     52 H12         24.0130     8.9570    12.0350 h5         1 K3H       0.050100
     53 H13         14.4700    11.7800    12.4320 h1         1 K3H       0.057200
     54 H14         14.5630    10.7680    13.8650 h1         1 K3H       0.057200
     55 H15         13.2410    10.7540    10.5300 h1         1 K3H       0.042700
     56 H16         13.4200     9.0060    10.3090 h1         1 K3H       0.042700
     57 H17         13.8750    10.1100     8.1110 h1         1 K3H       0.051700
     58 H18         15.2020     8.2180     7.7920 h1         1 K3H       0.039700
     59 H19         15.6540    11.0790    10.2110 h1         1 K3H       0.071700
     60 H20         17.5800     9.8220     8.8320 h2         1 K3H       0.119700
     61 H21         22.0520     4.5760     9.6370 hn         1 K3H       0.506500
     62 H22         20.4230     4.0000     9.5000 hn         1 K3H       0.506500
     63 H23         23.0960    13.1090    10.5820 hn         1 K3H       0.508500
     64 H24         21.3930    13.3590    10.8050 hn         1 K3H       0.508500
     65 H26         18.9040     8.5860    16.3010 ho         1 K3H       0.512000
     66 H27         19.3340     6.0240    15.5770 ho         1 K3H       0.520000
     67 H28         15.0970     8.2050    12.6840 ho         1 K3H       0.554000
     68 H29         14.7820    12.1990     8.1680 ho         1 K3H       0.501000
     69 H30         16.5970     8.5830     6.1180 ho         1 K3H       0.512000
     70 NBN         14.1290     9.6870    12.1340 n3         1 K3H      -0.716600
     71 NAC         22.2020    12.7680    10.8950 nv         1 K3H      -1.066900
@<TRIPOS>BOND
     1     1     2 ar  
     2     1     6 ar  
     3     1    29 1   
     4     2     3 ar  
     5     2    28 1   
     6     3     5 ar  
     7     3    27 1   
     8     4    28 2   
     9     4    29 1   
    10     4    41 1   
    11     5     8 ar  
    12     6     8 ar  
    13     7     9 1   
    14     7    33 1   
    15     7    36 1   
    16     7    42 1   
    17     8    43 1   
    18     9    10 1   
    19     9    34 1   
    20     9    44 1   
    21    10    11 1   
    22    10    35 1   
    23    10    45 1   
    24    11    12 1   
    25    11    36 1   
    26    11    46 1   
    27    12    37 1   
    28    12    47 1   
    29    12    48 1   
    30    13    49 1   
    31    13    50 1   
    32    13    51 1   
    33    13    70 1   
    34    14    15 3   
    35    14    17 1   
    36    15    20 1   
    37    16    30 ar  
    38    16    31 ar  
    39    16    52 1   
    40    17    53 1   
    41    17    54 1   
    42    17    70 1   
    43    18    25 1   
    44    18    55 1   
    45    18    56 1   
    46    18    70 1   
    47    19    21 ar  
    48    19    30 ar  
    49    19    71 1   
    50    20    32 2   
    51    20    33 1   
    52    21    22 ar  
    53    21    32 1   
    54    22    31 ar  
    55    22    33 1   
    56    23    24 1   
    57    23    25 1   
    58    23    38 1   
    59    23    57 1   
    60    24    26 1   
    61    24    39 1   
    62    24    58 1   
    63    25    40 1   
    64    25    59 1   
    65    26    29 1   
    66    26    40 1   
    67    26    60 1   
    68    27    61 1   
    69    27    62 1   
    70    34    65 1   
    71    35    66 1   
    72    37    67 1   
    73    38    68 1   
    74    39    69 1   
    75    63    71 1   
    76    64    71 1   
@<TRIPOS>SUBSTRUCTURE
     1 K3H         1 TEMP              0 ****  ****    0 ROOT
