@<TRIPOS>MOLECULE
K3J
   21    21     1     0     0
SMALL
No Charge or Current Charge


@<TRIPOS>ATOM
      1 N1           1.7070    -1.0910     0.0690 nb         1 K3J      -0.282000
      2 C4           1.5230     1.3110    -0.0440 ca         1 K3J      -0.083000
      3 C5           2.2940     0.1310     0.0110 ca         1 K3J       0.237300
      4 C6           3.8120     0.1680     0.0150 c3         1 K3J      -0.134400
      5 C           -4.2320    -0.1230     0.0150 c3         1 K3J      -0.107100
      6 C1          -2.8780     0.6010    -0.0180 c3         1 K3J       0.226800
      7 C2          -0.4240    -0.1090     0.0200 ca         1 K3J       0.551900
      8 C3           0.1190     1.1870    -0.0400 ca         1 K3J      -0.180000
      9 N2           0.3590    -1.2060     0.0740 nb         1 K3J      -0.408000
     10 H1           1.9990     2.2870    -0.0880 ha         1 K3J       0.123000
     11 H2           4.2010     0.0430     1.0330 hc         1 K3J       0.049367
     12 H3           4.2320    -0.6320    -0.6060 hc         1 K3J       0.049367
     13 H4           4.1890     1.1210    -0.3740 hc         1 K3J       0.049367
     14 H5          -2.0150    -1.3600     0.0770 hn         1 K3J       0.499000
     15 H6          -4.3360    -0.7960    -0.8450 hc         1 K3J       0.046033
     16 H7          -4.3390    -0.7090     0.9350 hc         1 K3J       0.046033
     17 H8          -5.0500     0.6060    -0.0220 hc         1 K3J       0.046033
     18 H9          -2.8130     1.2850     0.8390 h1         1 K3J       0.037200
     19 H10         -2.8100     1.1990    -0.9380 h1         1 K3J       0.037200
     20 H11         -0.5190     2.0640    -0.0820 ha         1 K3J       0.127000
     21 N           -1.7810    -0.3700     0.0310 nu         1 K3J      -0.930100
@<TRIPOS>BOND
     1     1     3 ar  
     2     1     9 ar  
     3     2     3 ar  
     4     2     8 ar  
     5     2    10 1   
     6     3     4 1   
     7     4    11 1   
     8     4    12 1   
     9     4    13 1   
    10     5     6 1   
    11     5    15 1   
    12     5    16 1   
    13     5    17 1   
    14     6    18 1   
    15     6    19 1   
    16     6    21 1   
    17     7     8 ar  
    18     7     9 ar  
    19     7    21 1   
    20     8    20 1   
    21    14    21 1   
@<TRIPOS>SUBSTRUCTURE
     1 K3J         1 TEMP              0 ****  ****    0 ROOT
