@<TRIPOS>MOLECULE
K3J
   21    21     1     0     0
SMALL
abcg2


@<TRIPOS>ATOM
      1 N1           1.6880    -1.0700    -0.1200 nb         1 K3J      -0.282000
      2 C4           1.4400     1.2710     0.1050 ca         1 K3J      -0.083000
      3 C5           2.2400     0.1220    -0.0070 ca         1 K3J       0.237300
      4 C6           3.7340     0.2030    -0.0080 c3         1 K3J      -0.134400
      5 C           -4.1570    -0.0620     0.0660 c3         1 K3J      -0.107100
      6 C1          -2.7840     0.5650    -0.0780 c3         1 K3J       0.226800
      7 C2          -0.4300    -0.1780    -0.0020 ca         1 K3J       0.551900
      8 C3           0.0830     1.1330     0.1050 ca         1 K3J      -0.180000
      9 N2           0.3830    -1.2270    -0.1200 nb         1 K3J      -0.408000
     10 H1           1.8960     2.2490     0.1850 ha         1 K3J       0.123000
     11 H2           4.1100     0.5730     0.9480 hc         1 K3J       0.049367
     12 H3           4.1710    -0.7770    -0.1890 hc         1 K3J       0.049367
     13 H4           4.0930     0.8860    -0.7790 hc         1 K3J       0.049367
     14 H5          -2.0070    -1.3880    -0.2340 hn         1 K3J       0.499000
     15 H6          -4.3410    -0.8000    -0.7160 hc         1 K3J       0.046033
     16 H7          -4.2640    -0.5540     1.0330 hc         1 K3J       0.046033
     17 H8          -4.9280     0.7030    -0.0130 hc         1 K3J       0.046033
     18 H9          -2.6440     1.3080     0.7110 h1         1 K3J       0.037200
     19 H10         -2.7190     1.1030    -1.0320 h1         1 K3J       0.037200
     20 H11         -0.5690     1.9920     0.1810 ha         1 K3J       0.127000
     21 N           -1.7560    -0.4470     0.0270 nu         1 K3J      -0.930100
@<TRIPOS>BOND
     1     1     3 ar  
     2     1     9 ar  
     3     2     3 ar  
     4     2     8 ar  
     5     2    10 1   
     6     3     4 1   
     7     4    11 1   
     8     4    12 1   
     9     4    13 1   
    10     5     6 1   
    11     5    15 1   
    12     5    16 1   
    13     5    17 1   
    14     6    18 1   
    15     6    19 1   
    16     6    21 1   
    17     7     8 ar  
    18     7     9 ar  
    19     7    21 1   
    20     8    20 1   
    21    14    21 1   
@<TRIPOS>SUBSTRUCTURE
     1 K3J         1 TEMP              0 ****  ****    0 ROOT
