@<TRIPOS>MOLECULE
K3K
   67    72     1     0     0
SMALL
abcg2


@<TRIPOS>ATOM
      1 C2           6.5890     2.2890     1.5950 ca         1 K3K       0.187900
      2 C4           4.9820     1.3490     0.4290 ca         1 K3K       0.152500
      3 N1           7.1810     2.8250     0.5320 nb         1 K3K      -0.305000
      4 C8           3.7630     0.7250    -1.2800 cc         1 K3K       0.471700
      5 C6           6.6550     2.6200    -0.6800 ca         1 K3K       0.453900
      6 N3           5.4960     1.5440     1.6390 nb         1 K3K      -0.213000
      7 C5           5.4860     1.8370    -0.7640 ca         1 K3K      -0.101600
      8 N6           7.2430     3.1540    -1.7490 nv         1 K3K      -1.064900
      9 N7           4.7160     1.4380    -1.8170 nd         1 K3K      -0.531100
     10 C1           3.0910    -0.1260     1.0410 c5         1 K3K       0.309300
     11 C1B         -5.8580     2.6930     1.0920 ca         1 K3K       0.454900
     12 C1P         -3.2110    -1.3290     0.5400 c5         1 K3K       0.319300
     13 C7           1.5750     0.0410     0.9970 c5         1 K3K       0.137300
     14 C2P         -4.1850    -2.3550    -0.0340 c5         1 K3K       0.105300
     15 C3           1.1430    -1.2040     1.7770 c5         1 K3K       0.097300
     16 C3B         -6.5380     0.8390     2.2750 ca         1 K3K       0.185900
     17 C3P         -3.7030    -2.4330    -1.4870 c5         1 K3K       0.092300
     18 C9           2.1950    -2.2350     1.3270 c5         1 K3K       0.135300
     19 C4P         -2.1910    -2.2820    -1.3230 c5         1 K3K       0.162300
     20 C10          1.6820    -3.1810     0.2660 c3         1 K3K       0.150600
     21 C5B         -4.7720     0.5860     0.9950 ca         1 K3K       0.121500
     22 C5P         -1.5340    -1.6340    -2.5180 c3         1 K3K       0.155600
     23 C6B         -4.8170     1.9040     0.5680 ca         1 K3K      -0.100600
     24 C81          2.7090     0.1400    -2.0190 cg         1 K3K      -0.078200
     25 C82          1.7740    -0.3030    -2.6310 c1         1 K3K      -0.117100
     26 C83          0.5610    -0.8260    -3.2440 c3         1 K3K       0.251700
     27 C8B         -3.1470     1.0410    -0.3920 cc         1 K3K       0.404700
     28 N1B         -6.0220     3.9760     0.7690 nv         1 K3K      -1.061900
     29 N2B         -6.7080     2.1190     1.9510 nb         1 K3K      -0.301000
     30 N4B         -5.6090     0.0000     1.8510 nb         1 K3K      -0.227000
     31 N7B         -3.7910     2.1680    -0.2980 nd         1 K3K      -0.550100
     32 N9           3.8630     0.6380     0.0950 na         1 K3K      -0.258300
     33 N9B         -3.6980     0.0380     0.3580 na         1 K3K      -0.317300
     34 O2           1.2210     1.2730     1.5410 oh         1 K3K      -0.679000
     35 O2P         -3.9580    -3.5660     0.6330 oh         1 K3K      -0.703000
     36 O3           1.2260    -0.9090     3.1470 oh         1 K3K      -0.692000
     37 O4           3.3100    -1.4910     0.8250 os         1 K3K      -0.436000
     38 O4P         -2.0150    -1.4790    -0.1570 os         1 K3K      -0.440000
     39 O5           2.7190    -4.0660    -0.0860 oh         1 K3K      -0.702000
     40 O5P         -0.1770    -1.4360    -2.2170 os         1 K3K      -0.453000
     41 H1           7.0670     2.4910     2.5470 h5         1 K3K       0.047100
     42 H2           8.0810     3.7000    -1.6470 hn         1 K3K       0.507000
     43 H3           6.8700     3.0180    -2.6720 hn         1 K3K       0.507000
     44 H4           3.4550     0.1930     2.0250 h2         1 K3K       0.119700
     45 H5          -3.0470    -1.4810     1.6100 h2         1 K3K       0.123700
     46 H6           1.2100    -0.0720    -0.0300 h1         1 K3K       0.063700
     47 H7          -5.2290    -2.0320     0.0490 h1         1 K3K       0.090700
     48 H8           0.1310    -1.5210     1.4970 h1         1 K3K       0.062700
     49 H9          -7.2600     0.4370     2.9780 h5         1 K3K       0.048100
     50 H10         -4.1090    -1.5790    -2.0450 h1         1 K3K       0.060700
     51 H11          2.5260    -2.8230     2.1920 h1         1 K3K       0.073700
     52 H12         -1.7370    -3.2640    -1.1440 h1         1 K3K       0.091700
     53 H13          0.8190    -3.7120     0.6910 h1         1 K3K       0.031700
     54 H14          1.3180    -2.6140    -0.5980 h1         1 K3K       0.031700
     55 H15         -1.6680    -2.2950    -3.3850 h1         1 K3K       0.037700
     56 H16         -2.0260    -0.6810    -2.7580 h1         1 K3K       0.037700
     57 H17          0.0100     0.0070    -3.7010 h1         1 K3K       0.048700
     58 H18          0.8030    -1.5280    -4.0520 h1         1 K3K       0.048700
     59 H19         -2.2590     0.8900    -0.9860 h5         1 K3K       0.073800
     60 H20         -5.4200     4.4250     0.1020 hn         1 K3K       0.508500
     61 H21         -6.7850     4.5050     1.1550 hn         1 K3K       0.508500
     62 H22          0.2840     1.4260     1.3890 ho         1 K3K       0.513000
     63 H23         -4.1360    -4.2820     0.0110 ho         1 K3K       0.526000
     64 H24          0.9860    -1.6990     3.6410 ho         1 K3K       0.505000
     65 H26          2.3930    -4.6400    -0.7840 ho         1 K3K       0.501000
     66 O3P         -3.9990    -3.6460    -2.1190 oh         1 K3K      -0.707000
     67 H25         -4.8950    -3.6040    -2.4680 ho         1 K3K       0.522000
@<TRIPOS>BOND
     1     1     3 ar  
     2     1     6 ar  
     3     1    41 1   
     4     2     6 ar  
     5     2     7 ar  
     6     2    32 1   
     7     3     5 ar  
     8     4     9 2   
     9     4    24 1   
    10     4    32 1   
    11     5     7 ar  
    12     5     8 1   
    13     7     9 1   
    14     8    42 1   
    15     8    43 1   
    16    10    13 1   
    17    10    32 1   
    18    10    37 1   
    19    10    44 1   
    20    11    23 ar  
    21    11    28 1   
    22    11    29 ar  
    23    12    14 1   
    24    12    33 1   
    25    12    38 1   
    26    12    45 1   
    27    13    15 1   
    28    13    34 1   
    29    13    46 1   
    30    14    17 1   
    31    14    35 1   
    32    14    47 1   
    33    15    18 1   
    34    15    36 1   
    35    15    48 1   
    36    16    29 ar  
    37    16    30 ar  
    38    16    49 1   
    39    17    19 1   
    40    17    50 1   
    41    17    66 1   
    42    18    20 1   
    43    18    37 1   
    44    18    51 1   
    45    19    22 1   
    46    19    38 1   
    47    19    52 1   
    48    20    39 1   
    49    20    53 1   
    50    20    54 1   
    51    21    23 ar  
    52    21    30 ar  
    53    21    33 1   
    54    22    40 1   
    55    22    55 1   
    56    22    56 1   
    57    23    31 1   
    58    24    25 3   
    59    25    26 1   
    60    26    40 1   
    61    26    57 1   
    62    26    58 1   
    63    27    31 2   
    64    27    33 1   
    65    27    59 1   
    66    28    60 1   
    67    28    61 1   
    68    34    62 1   
    69    35    63 1   
    70    36    64 1   
    71    39    65 1   
    72    66    67 1   
@<TRIPOS>SUBSTRUCTURE
     1 K3K         1 TEMP              0 ****  ****    0 ROOT
