@<TRIPOS>MOLECULE
K3K
   67    72     1     0     0
SMALL
No Charge or Current Charge


@<TRIPOS>ATOM
      1 C2           6.5890     2.3830     1.8940 ca         1 K3K       0.187900
      2 C4           4.9200     1.4200     0.6580 ca         1 K3K       0.152500
      3 N1           7.4170     2.5680     0.8370 nb         1 K3K      -0.305000
      4 C8           3.8630     0.6260    -1.1300 cc         1 K3K       0.471700
      5 C6           6.9530     2.1560    -0.3530 ca         1 K3K       0.453900
      6 N3           5.3540     1.8270     1.8690 nb         1 K3K      -0.213000
      7 C5           5.6810     1.5630    -0.4750 ca         1 K3K      -0.101600
      8 N6           7.7830     2.3390    -1.4140 nv         1 K3K      -1.064900
      9 N7           5.0380     1.0680    -1.6120 nd         1 K3K      -0.531100
     10 C1           2.6200     0.5140     1.1410 c5         1 K3K       0.309300
     11 C1B         -4.9470     2.4140     1.9290 ca         1 K3K       0.454900
     12 C1P         -3.5170    -1.7710    -0.1060 c5         1 K3K       0.319300
     13 C7           1.1460     0.7840     0.6790 c5         1 K3K       0.137300
     14 C2P         -4.2980    -2.8940    -0.8920 c5         1 K3K       0.105300
     15 C3           0.4050    -0.0610     1.7490 c5         1 K3K       0.097300
     16 C3B         -3.3570     1.3010     3.1410 ca         1 K3K       0.185900
     17 C3P         -3.6730    -2.7630    -2.3110 c5         1 K3K       0.092300
     18 C9           1.3040    -1.3490     1.7570 c5         1 K3K       0.135300
     19 C4P         -2.1940    -2.4770    -1.9170 c5         1 K3K       0.162300
     20 C10          0.9270    -2.3850     0.6580 c3         1 K3K       0.150600
     21 C5B         -4.0420     0.3360     1.1840 ca         1 K3K       0.121500
     22 C5P         -1.2920    -1.9580    -3.0670 c3         1 K3K       0.155600
     23 C6B         -4.9050     1.3810     0.9710 ca         1 K3K      -0.100600
     24 C81          2.8990     0.0180    -1.9810 cg         1 K3K      -0.078200
     25 C82          2.0350    -0.4750    -2.6800 c1         1 K3K      -0.117100
     26 C83          0.9250    -1.0430    -3.4500 c3         1 K3K       0.251700
     27 C8B         -5.1830     0.0680    -0.7120 cc         1 K3K       0.404700
     28 N1B         -5.7720     3.4890     1.8120 nv         1 K3K      -1.061900
     29 N2B         -4.1720     2.3780     3.0250 nb         1 K3K      -0.301000
     30 N4B         -3.2510     0.2670     2.2720 nb         1 K3K      -0.227000
     31 N7B         -5.6360     1.2330    -0.2120 nd         1 K3K      -0.550100
     32 N9           3.7550     0.8260     0.2580 na         1 K3K      -0.258300
     33 N9B         -4.2100    -0.5010     0.1180 na         1 K3K      -0.317300
     34 O2           0.7460     2.1580     0.7680 oh         1 K3K      -0.679000
     35 O2P         -4.0410    -4.2200    -0.4040 oh         1 K3K      -0.703000
     36 O3           0.3910     0.6290     3.0150 oh         1 K3K      -0.692000
     37 O4           2.6620    -0.8790     1.5250 os         1 K3K      -0.436000
     38 O4P         -2.3190    -1.4880    -0.8690 os         1 K3K      -0.440000
     39 O5           1.5890    -3.6440     0.8800 oh         1 K3K      -0.702000
     40 O5P         -0.0300    -1.5540    -2.5080 os         1 K3K      -0.453000
     41 H1           6.9540     2.7150     2.8650 h5         1 K3K       0.047100
     42 H2           8.7700     2.4910    -1.2260 hn         1 K3K       0.507000
     43 H3           7.5530     1.8430    -2.2720 hn         1 K3K       0.507000
     44 H4           2.7910     1.1150     2.0430 h2         1 K3K       0.119700
     45 H5          -3.2490    -2.1480     0.8900 h2         1 K3K       0.123700
     46 H6           0.9350     0.3880    -0.3190 h1         1 K3K       0.063700
     47 H7          -5.3800    -2.6990    -0.9100 h1         1 K3K       0.090700
     48 H8          -0.6200    -0.2940     1.4280 h1         1 K3K       0.062700
     49 H9          -2.7240     1.2620     4.0260 h5         1 K3K       0.048100
     50 H10         -4.1050    -1.9050    -2.8470 h1         1 K3K       0.060700
     51 H11          1.2570    -1.8530     2.7320 h1         1 K3K       0.073700
     52 H12         -1.7230    -3.3740    -1.4930 h1         1 K3K       0.091700
     53 H13         -0.1620    -2.5300     0.6680 h1         1 K3K       0.031700
     54 H14          1.2010    -1.9790    -0.3220 h1         1 K3K       0.031700
     55 H15         -1.1540    -2.7560    -3.8080 h1         1 K3K       0.037700
     56 H16         -1.7870    -1.1090    -3.5590 h1         1 K3K       0.037700
     57 H17          0.4840    -0.2530    -4.0720 h1         1 K3K       0.048700
     58 H18          1.2990    -1.8410    -4.1060 h1         1 K3K       0.048700
     59 H19         -5.5080    -0.3950    -1.6360 h5         1 K3K       0.073800
     60 H20         -6.5120     3.4200     1.1190 hn         1 K3K       0.508500
     61 H21         -5.9810     4.0270     2.6490 hn         1 K3K       0.508500
     62 H22          0.4340     2.2480     1.7020 ho         1 K3K       0.513000
     63 H23         -3.9680    -4.7500    -1.2400 ho         1 K3K       0.526000
     64 H24         -0.0440     0.0380     3.6750 ho         1 K3K       0.505000
     65 H26          1.4070    -4.2090     0.0940 ho         1 K3K       0.501000
     66 O3P         -3.8550    -3.9810    -3.0610 oh         1 K3K      -0.707000
     67 H25         -3.8460    -3.7500    -4.0220 ho         1 K3K       0.522000
@<TRIPOS>BOND
     1     1     3 ar  
     2     1     6 ar  
     3     1    41 1   
     4     2     6 ar  
     5     2     7 ar  
     6     2    32 1   
     7     3     5 ar  
     8     4     9 2   
     9     4    24 1   
    10     4    32 1   
    11     5     7 ar  
    12     5     8 1   
    13     7     9 1   
    14     8    42 1   
    15     8    43 1   
    16    10    13 1   
    17    10    32 1   
    18    10    37 1   
    19    10    44 1   
    20    11    23 ar  
    21    11    28 1   
    22    11    29 ar  
    23    12    14 1   
    24    12    33 1   
    25    12    38 1   
    26    12    45 1   
    27    13    15 1   
    28    13    34 1   
    29    13    46 1   
    30    14    17 1   
    31    14    35 1   
    32    14    47 1   
    33    15    18 1   
    34    15    36 1   
    35    15    48 1   
    36    16    29 ar  
    37    16    30 ar  
    38    16    49 1   
    39    17    19 1   
    40    17    50 1   
    41    17    66 1   
    42    18    20 1   
    43    18    37 1   
    44    18    51 1   
    45    19    22 1   
    46    19    38 1   
    47    19    52 1   
    48    20    39 1   
    49    20    53 1   
    50    20    54 1   
    51    21    23 ar  
    52    21    30 ar  
    53    21    33 1   
    54    22    40 1   
    55    22    55 1   
    56    22    56 1   
    57    23    31 1   
    58    24    25 3   
    59    25    26 1   
    60    26    40 1   
    61    26    57 1   
    62    26    58 1   
    63    27    31 2   
    64    27    33 1   
    65    27    59 1   
    66    28    60 1   
    67    28    61 1   
    68    34    62 1   
    69    35    63 1   
    70    36    64 1   
    71    39    65 1   
    72    66    67 1   
@<TRIPOS>SUBSTRUCTURE
     1 K3K         1 TEMP              0 ****  ****    0 ROOT
