@<TRIPOS>MOLECULE
K3L
   82    87     1     0     0
SMALL
No Charge or Current Charge


@<TRIPOS>ATOM
      1 N1          37.9350    -2.0180    -6.5410 nv         1 K3L      -1.094000
      2 N3          30.8190     0.6910    -2.9120 n          1 K3L      -0.383800
      3 C4          35.8570     1.0100    -6.4180 ca         1 K3L       0.037500
      4 C5          34.5930     0.4670    -6.7230 ca         1 K3L      -0.386500
      5 C6          34.4570    -0.9120    -6.9660 ca         1 K3L       0.037500
      6 C7          30.9620     1.7310    -5.2300 c6         1 K3L       0.102800
      7 C8          30.1410     1.3360    -3.9730 c          1 K3L       0.578000
      8 C10         33.0370     1.0430    -4.1350 c6         1 K3L       0.165800
      9 C13         28.8440     2.1850     1.5390 c3         1 K3L       0.078400
     10 C15         27.4790     2.8630     1.2580 c3         1 K3L      -0.047100
     11 C17         28.1600     5.0180     0.1010 ca         1 K3L      -0.162000
     12 C20         26.9500     4.2150    -2.2950 ca         1 K3L       0.211500
     13 C21         26.9020     3.3740    -1.1720 ca         1 K3L      -0.162000
     14 C22         29.2200     1.8400     5.3330 c          1 K3L       0.578600
     15 C24         28.5960    -0.3150     4.2820 ca         1 K3L       0.189400
     16 C26         28.5720    -1.6120     6.7910 ca         1 K3L      -0.132000
     17 C28         28.2850    -1.6830     4.3810 ca         1 K3L      -0.107000
     18 C1          35.5870    -1.7440    -6.9030 ca         1 K3L      -0.217500
     19 C2          36.8410    -1.2050    -6.6010 ca         1 K3L       0.379000
     20 C3          36.9780     0.1660    -6.3590 ca         1 K3L      -0.217500
     21 N2          32.2770     1.0380    -5.4090 n3         1 K3L      -0.691500
     22 C9          32.2570     0.3200    -3.0040 c6         1 K3L       0.119000
     23 C12         29.9360     1.5240    -0.6600 c          1 K3L       0.590100
     24 O3          28.9410     1.5800    -3.9040 o          1 K3L      -0.558000
     25 O4          30.4570     2.6200    -0.8230 o          1 K3L      -0.597100
     26 N4          29.1750     1.2330     0.4520 ns         1 K3L      -0.495900
     27 C14         28.8900     1.5580     2.9400 cc         1 K3L       0.500900
     28 C16         27.5100     3.7700     0.0350 ca         1 K3L      -0.032300
     29 C18         28.2060     5.8500    -1.0280 ca         1 K3L       0.211500
     30 C19         27.6020     5.4540    -2.2280 ca         1 K3L      -0.196000
     31 F1          28.8350     7.0430    -0.9560 f          1 K3L      -0.171500
     32 N5          29.2050     2.3720     4.0430 n          1 K3L      -0.252500
     33 C23         28.8950     0.4000     5.4480 ca         1 K3L      -0.201600
     34 N6          28.5840     0.2530     3.0060 nd         1 K3L      -0.649100
     35 C25         28.8840    -0.2460     6.7040 ca         1 K3L      -0.039000
     36 C27         28.2720    -2.3340     5.6270 ca         1 K3L      -0.073000
     37 O5          29.4900     2.5200     6.3170 o          1 K3L      -0.511000
     38 C29         29.5000     3.7650     3.8450 ca         1 K3L      -0.027400
     39 C30         28.5660     4.7450     4.2310 ca         1 K3L      -0.054000
     40 C31         28.8830     6.1090     4.1090 ca         1 K3L      -0.169000
     41 C32         30.1450     6.5080     3.6440 ca         1 K3L       0.157100
     42 C33         31.1080     5.5270     3.3220 ca         1 K3L      -0.169000
     43 C34         30.7910     4.1630     3.4460 ca         1 K3L      -0.054000
     44 O6          30.3960     7.8610     3.5400 os         1 K3L      -0.335100
     45 C35         31.6510     8.3730     3.0570 c3         1 K3L       0.146900
     46 H6          38.7970    -1.6590    -6.1340 hn         1 K3L       0.476500
     47 H5          37.8040    -3.0280    -6.5240 hn         1 K3L       0.476500
     48 H3          35.9770     2.0760    -6.2250 ha         1 K3L       0.131500
     49 H4          33.4820    -1.3410    -7.1960 ha         1 K3L       0.131500
     50 H7          31.1100     2.8170    -5.1490 h1         1 K3L       0.087700
     51 H8          30.3070     1.5500    -6.0940 h1         1 K3L       0.087700
     52 H12         33.2450     2.0770    -3.8200 h1         1 K3L       0.067700
     53 H11         34.0090     0.5400    -4.2380 h1         1 K3L       0.067700
     54 H16         29.6090     2.9670     1.5030 h1         1 K3L       0.108700
     55 H18         26.7080     2.0900     1.1490 hc         1 K3L       0.064200
     56 H17         27.1810     3.4560     2.1300 hc         1 K3L       0.064200
     57 H19         28.6360     5.3430     1.0230 ha         1 K3L       0.134000
     58 H21         26.3970     2.4150    -1.2460 ha         1 K3L       0.134000
     59 H23         28.5640    -2.1100     7.7590 ha         1 K3L       0.122000
     60 H25         28.0500    -2.2470     3.4820 ha         1 K3L       0.130000
     61 H1          35.4800    -2.8090    -7.0900 ha         1 K3L       0.118000
     62 H2          37.9520     0.5860    -6.1250 ha         1 K3L       0.118000
     63 H9          32.7520     0.5210    -2.0440 h1         1 K3L       0.054700
     64 H10         32.3170    -0.7620    -3.1810 h1         1 K3L       0.054700
     65 H15         28.8220     0.2860     0.5370 hn         1 K3L       0.334500
     66 H20         27.6370     6.1020    -3.0990 ha         1 K3L       0.148000
     67 H22         29.1160     0.3050     7.6140 ha         1 K3L       0.137000
     68 H24         28.0290    -3.3930     5.6870 ha         1 K3L       0.119000
     69 H26         27.5890     4.4490     4.6080 ha         1 K3L       0.126000
     70 H27         28.1470     6.8620     4.3820 ha         1 K3L       0.130000
     71 H28         32.1040     5.8010     2.9850 ha         1 K3L       0.130000
     72 H29         31.5440     3.4120     3.2140 ha         1 K3L       0.126000
     73 H31         31.6330     9.4700     3.0460 h1         1 K3L       0.044033
     74 H30         32.4780     8.0540     3.7040 h1         1 K3L       0.044033
     75 H32         31.8470     8.0250     2.0350 h1         1 K3L       0.044033
     76 S1          33.1410     1.5230    -6.7930 sy         1 K3L       1.158600
     77 C11         30.0930     0.3550    -1.6540 c3         1 K3L       0.018000
     78 O1          32.3370     1.0830    -7.9380 o          1 K3L      -0.534000
     79 O2          33.5250     2.9250    -6.5980 o          1 K3L      -0.534000
     80 F2          26.3590     3.8320    -3.4470 f          1 K3L      -0.171500
     81 H14         29.0890    -0.0160    -1.8960 h1         1 K3L       0.077200
     82 H13         30.6190    -0.4530    -1.1300 h1         1 K3L       0.077200
@<TRIPOS>BOND
     1     1    19 1   
     2     1    46 1   
     3     1    47 1   
     4     2     7 1   
     5     2    22 1   
     6     2    77 1   
     7     3     4 ar  
     8     3    20 ar  
     9     3    48 1   
    10     4     5 ar  
    11     4    76 1   
    12     5    18 ar  
    13     5    49 1   
    14     6     7 1   
    15     6    21 1   
    16     6    50 1   
    17     6    51 1   
    18     7    24 2   
    19     8    21 1   
    20     8    22 1   
    21     8    52 1   
    22     8    53 1   
    23     9    10 1   
    24     9    26 1   
    25     9    27 1   
    26     9    54 1   
    27    10    28 1   
    28    10    55 1   
    29    10    56 1   
    30    11    28 ar  
    31    11    29 ar  
    32    11    57 1   
    33    12    13 ar  
    34    12    30 ar  
    35    12    80 1   
    36    13    28 ar  
    37    13    58 1   
    38    14    32 1   
    39    14    33 1   
    40    14    37 2   
    41    15    17 ar  
    42    15    33 ar  
    43    15    34 1   
    44    16    35 ar  
    45    16    36 ar  
    46    16    59 1   
    47    17    36 ar  
    48    17    60 1   
    49    18    19 ar  
    50    18    61 1   
    51    19    20 ar  
    52    20    62 1   
    53    21    76 1   
    54    22    63 1   
    55    22    64 1   
    56    23    25 2   
    57    23    26 1   
    58    23    77 1   
    59    26    65 1   
    60    27    32 1   
    61    27    34 2   
    62    29    30 ar  
    63    29    31 1   
    64    30    66 1   
    65    32    38 1   
    66    33    35 ar  
    67    35    67 1   
    68    36    68 1   
    69    38    39 ar  
    70    38    43 ar  
    71    39    40 ar  
    72    39    69 1   
    73    40    41 ar  
    74    40    70 1   
    75    41    42 ar  
    76    41    44 1   
    77    42    43 ar  
    78    42    71 1   
    79    43    72 1   
    80    44    45 1   
    81    45    73 1   
    82    45    74 1   
    83    45    75 1   
    84    76    78 2   
    85    76    79 2   
    86    77    81 1   
    87    77    82 1   
@<TRIPOS>SUBSTRUCTURE
     1 K3L         1 TEMP              0 ****  ****    0 ROOT
