@<TRIPOS>MOLECULE
K3L
   82    87     1     0     0
SMALL
abcg2


@<TRIPOS>ATOM
      1 N1          36.7050     3.6220    -5.2450 nv         1 K3L      -1.094000
      2 N3          30.0490    -0.2820    -2.8030 n          1 K3L      -0.383800
      3 C4          33.7390     1.8890    -6.5110 ca         1 K3L       0.037500
      4 C5          33.9580     0.6020    -6.0230 ca         1 K3L      -0.386500
      5 C6          35.0980     0.3340    -5.2660 ca         1 K3L       0.037500
      6 C7          30.8250     0.5890    -4.9710 c6         1 K3L       0.102800
      7 C8          29.8750     0.6120    -3.7900 c          1 K3L       0.578000
      8 C10         32.2750    -0.8140    -3.6680 c6         1 K3L       0.165800
      9 C13         28.9190     2.1830     1.2620 c3         1 K3L       0.078400
     10 C15         27.9040     3.3290     1.0660 c3         1 K3L      -0.047100
     11 C17         29.1630     4.9820    -0.3280 ca         1 K3L      -0.162000
     12 C20         27.6670     4.3550    -2.5520 ca         1 K3L       0.211500
     13 C21         27.3910     3.7160    -1.3580 ca         1 K3L      -0.162000
     14 C22         29.2900     1.8020     5.0140 c          1 K3L       0.578600
     15 C24         27.7990     0.0880     4.0640 ca         1 K3L       0.189400
     16 C26         27.3690    -0.9800     6.6060 ca         1 K3L      -0.132000
     17 C28         26.9620    -1.0230     4.2270 ca         1 K3L      -0.107000
     18 C1          36.0030     1.3370    -4.9980 ca         1 K3L      -0.217500
     19 C2          35.7960     2.6430    -5.4780 ca         1 K3L       0.379000
     20 C3          34.6430     2.8940    -6.2440 ca         1 K3L      -0.217500
     21 N2          31.7050    -0.5680    -4.9860 n3         1 K3L      -0.691500
     22 C9          31.1510    -1.2250    -2.7490 c6         1 K3L       0.119000
     23 C12         29.6080     0.9240    -0.7210 c          1 K3L       0.590100
     24 O3          28.9890     1.4520    -3.7730 o          1 K3L      -0.558000
     25 O4          30.6510     1.5330    -0.8720 o          1 K3L      -0.597100
     26 N4          28.7330     1.1590     0.2730 ns         1 K3L      -0.495900
     27 C14         28.7690     1.6050     2.6540 cc         1 K3L       0.500900
     28 C16         28.1450     4.0350    -0.2350 ca         1 K3L      -0.032300
     29 C18         29.3960     5.5910    -1.5440 ca         1 K3L       0.211500
     30 C19         28.6660     5.3000    -2.6810 ca         1 K3L      -0.196000
     31 F1          30.3680     6.5090    -1.6350 f          1 K3L      -0.171500
     32 N5          29.4260     2.2280     3.6910 n          1 K3L      -0.252500
     33 C23         28.4140     0.6520     5.1870 ca         1 K3L      -0.201600
     34 N6          27.9940     0.5970     2.8030 nd         1 K3L      -0.649100
     35 C25         28.1940     0.1130     6.4580 ca         1 K3L      -0.039000
     36 C27         26.7530    -1.5470     5.4840 ca         1 K3L      -0.073000
     37 O5          29.8790     2.3670     5.9120 o          1 K3L      -0.511000
     38 C29         30.3070     3.3330     3.4580 ca         1 K3L      -0.027400
     39 C30         29.8690     4.6330     3.6790 ca         1 K3L      -0.054000
     40 C31         30.7120     5.6990     3.4420 ca         1 K3L      -0.169000
     41 C32         32.0160     5.4800     2.9860 ca         1 K3L       0.157100
     42 C33         32.4590     4.1740     2.7810 ca         1 K3L      -0.169000
     43 C34         31.6020     3.1090     3.0270 ca         1 K3L      -0.054000
     44 O6          32.7610     6.5750     2.7760 os         1 K3L      -0.335100
     45 C35         34.0900     6.4170     2.3180 c3         1 K3L       0.146900
     46 H6          36.4330     4.5790    -5.3930 hn         1 K3L       0.476500
     47 H5          37.3890     3.4860    -4.5210 hn         1 K3L       0.476500
     48 H3          32.8670     2.1140    -7.1120 ha         1 K3L       0.131500
     49 H4          35.2910    -0.6610    -4.8870 ha         1 K3L       0.131500
     50 H7          31.3840     1.5350    -4.9290 h1         1 K3L       0.087700
     51 H8          30.2150     0.6060    -5.8720 h1         1 K3L       0.087700
     52 H12         32.7820     0.0790    -3.2800 h1         1 K3L       0.067700
     53 H11         32.9990    -1.6260    -3.7090 h1         1 K3L       0.067700
     54 H16         29.9250     2.5760     1.1280 h1         1 K3L       0.108700
     55 H18         26.8950     2.9130     1.1010 hc         1 K3L       0.064200
     56 H17         27.9880     4.0370     1.8910 hc         1 K3L       0.064200
     57 H19         29.7630     5.2420     0.5370 ha         1 K3L       0.134000
     58 H21         26.5980     2.9820    -1.3040 ha         1 K3L       0.134000
     59 H23         27.1960    -1.4010     7.5870 ha         1 K3L       0.122000
     60 H25         26.4900    -1.4550     3.3550 ha         1 K3L       0.130000
     61 H1          36.8870     1.1150    -4.4130 ha         1 K3L       0.118000
     62 H2          34.4660     3.8900    -6.6310 ha         1 K3L       0.118000
     63 H9          31.5340    -1.2640    -1.7280 h1         1 K3L       0.054700
     64 H10         30.7990    -2.2270    -3.0100 h1         1 K3L       0.054700
     65 H15         27.8990     0.5940     0.3430 hn         1 K3L       0.334500
     66 H20         28.8640     5.7910    -3.6240 ha         1 K3L       0.148000
     67 H22         28.6750     0.5570     7.3190 ha         1 K3L       0.137000
     68 H24         26.1060    -2.4060     5.6060 ha         1 K3L       0.119000
     69 H26         28.8610     4.8150     4.0300 ha         1 K3L       0.126000
     70 H27         30.3690     6.7120     3.6080 ha         1 K3L       0.130000
     71 H28         33.4610     3.9620     2.4360 ha         1 K3L       0.130000
     72 H29         31.9530     2.0970     2.8680 ha         1 K3L       0.126000
     73 H31         34.5010     7.4180     2.2150 h1         1 K3L       0.044033
     74 H30         34.7020     5.8570     3.0300 h1         1 K3L       0.044033
     75 H32         34.1300     5.9170     1.3470 h1         1 K3L       0.044033
     76 S1          32.7620    -0.6530    -6.2780 sy         1 K3L       1.158600
     77 C11         29.1850    -0.2040    -1.6570 c3         1 K3L       0.018000
     78 O1          33.4130    -1.9480    -6.1790 o          1 K3L      -0.534000
     79 O2          31.9750    -0.3300    -7.4570 o          1 K3L      -0.534000
     80 F2          26.9330     4.0550    -3.6310 f          1 K3L      -0.171500
     81 H14         28.1450    -0.0700    -1.9600 h1         1 K3L       0.077200
     82 H13         29.2310    -1.1510    -1.1150 h1         1 K3L       0.077200
@<TRIPOS>BOND
     1     1    19 1   
     2     1    46 1   
     3     1    47 1   
     4     2     7 1   
     5     2    22 1   
     6     2    77 1   
     7     3     4 ar  
     8     3    20 ar  
     9     3    48 1   
    10     4     5 ar  
    11     4    76 1   
    12     5    18 ar  
    13     5    49 1   
    14     6     7 1   
    15     6    21 1   
    16     6    50 1   
    17     6    51 1   
    18     7    24 2   
    19     8    21 1   
    20     8    22 1   
    21     8    52 1   
    22     8    53 1   
    23     9    10 1   
    24     9    26 1   
    25     9    27 1   
    26     9    54 1   
    27    10    28 1   
    28    10    55 1   
    29    10    56 1   
    30    11    28 ar  
    31    11    29 ar  
    32    11    57 1   
    33    12    13 ar  
    34    12    30 ar  
    35    12    80 1   
    36    13    28 ar  
    37    13    58 1   
    38    14    32 1   
    39    14    33 1   
    40    14    37 2   
    41    15    17 ar  
    42    15    33 ar  
    43    15    34 1   
    44    16    35 ar  
    45    16    36 ar  
    46    16    59 1   
    47    17    36 ar  
    48    17    60 1   
    49    18    19 ar  
    50    18    61 1   
    51    19    20 ar  
    52    20    62 1   
    53    21    76 1   
    54    22    63 1   
    55    22    64 1   
    56    23    25 2   
    57    23    26 1   
    58    23    77 1   
    59    26    65 1   
    60    27    32 1   
    61    27    34 2   
    62    29    30 ar  
    63    29    31 1   
    64    30    66 1   
    65    32    38 1   
    66    33    35 ar  
    67    35    67 1   
    68    36    68 1   
    69    38    39 ar  
    70    38    43 ar  
    71    39    40 ar  
    72    39    69 1   
    73    40    41 ar  
    74    40    70 1   
    75    41    42 ar  
    76    41    44 1   
    77    42    43 ar  
    78    42    71 1   
    79    43    72 1   
    80    44    45 1   
    81    45    73 1   
    82    45    74 1   
    83    45    75 1   
    84    76    78 2   
    85    76    79 2   
    86    77    81 1   
    87    77    82 1   
@<TRIPOS>SUBSTRUCTURE
     1 K3L         1 TEMP              0 ****  ****    0 ROOT
