@<TRIPOS>MOLECULE
K3M
   19    19     1     0     0
SMALL
No Charge or Current Charge


@<TRIPOS>ATOM
      1 C4          -0.5870     0.2490     0.0160 ca         1 K3M      -0.203600
      2 C5          -2.1010     0.2940     0.0210 c          1 K3M       0.625700
      3 C6           0.1110    -0.9840     0.0310 ca         1 K3M       0.229000
      4 C7           1.5150    -1.0170     0.0260 ca         1 K3M      -0.169000
      5 N           -2.6970     1.5060     0.0060 nt         1 K3M      -0.607000
      6 C            3.7810     0.1290    -0.0010 c3         1 K3M      -0.053800
      7 O           -2.8130    -0.6950     0.0380 o          1 K3M      -0.584100
      8 C1           2.2610     0.1720     0.0070 ca         1 K3M      -0.026300
      9 C2           1.5830     1.4000    -0.0100 ca         1 K3M      -0.139000
     10 C3           0.1790     1.4440    -0.0060 ca         1 K3M      -0.061000
     11 F           -0.5420    -2.1670     0.0490 f          1 K3M      -0.158000
     12 H1           2.0230    -1.9780     0.0360 ha         1 K3M       0.135000
     13 H2          -2.1430     2.3470    -0.0090 hn         1 K3M       0.315500
     14 H3          -3.7050     1.5570     0.0090 hn         1 K3M       0.315500
     15 H4           4.1640     0.0980    -1.0280 hc         1 K3M       0.049033
     16 H5           4.2090     1.0110     0.4900 hc         1 K3M       0.049033
     17 H6           4.1590    -0.7560     0.5240 hc         1 K3M       0.049033
     18 H7           2.1470     2.3310    -0.0290 ha         1 K3M       0.119000
     19 H8          -0.2980     2.4210    -0.0190 ha         1 K3M       0.116000
@<TRIPOS>BOND
     1     1     2 1   
     2     1     3 ar  
     3     1    10 ar  
     4     2     5 1   
     5     2     7 2   
     6     3     4 ar  
     7     3    11 1   
     8     4     8 ar  
     9     4    12 1   
    10     5    13 1   
    11     5    14 1   
    12     6     8 1   
    13     6    15 1   
    14     6    16 1   
    15     6    17 1   
    16     8     9 ar  
    17     9    10 ar  
    18     9    18 1   
    19    10    19 1   
@<TRIPOS>SUBSTRUCTURE
     1 K3M         1 TEMP              0 ****  ****    0 ROOT
