@<TRIPOS>MOLECULE
K3M
   19    19     1     0     0
SMALL
abcg2


@<TRIPOS>ATOM
      1 C4          -0.5730     0.2970    -0.1210 ca         1 K3M      -0.203600
      2 C5          -2.0630     0.3360    -0.2410 c          1 K3M       0.625700
      3 C6           0.1060    -0.8990     0.0720 ca         1 K3M       0.229000
      4 C7           1.4820    -0.9680     0.1450 ca         1 K3M      -0.169000
      5 N           -2.6480     1.3820     0.3580 nt         1 K3M      -0.607000
      6 C            3.7410     0.1200     0.0420 c3         1 K3M      -0.053800
      7 O           -2.6820    -0.5170    -0.8600 o          1 K3M      -0.584100
      8 C1           2.2440     0.1890     0.0030 ca         1 K3M      -0.026300
      9 C2           1.5830     1.3990    -0.1950 ca         1 K3M      -0.139000
     10 C3           0.2000     1.4490    -0.2520 ca         1 K3M      -0.061000
     11 F           -0.5870    -2.0320     0.2360 f          1 K3M      -0.158000
     12 H1           1.9580    -1.9250     0.3200 ha         1 K3M       0.135000
     13 H2          -2.1400     2.0190     0.9470 hn         1 K3M       0.315500
     14 H3          -3.6470     1.5040     0.2980 hn         1 K3M       0.315500
     15 H4           4.1380    -0.1380    -0.9420 hc         1 K3M       0.049033
     16 H5           4.1770     1.0750     0.3310 hc         1 K3M       0.049033
     17 H6           4.0880    -0.6410     0.7400 hc         1 K3M       0.049033
     18 H7           2.1540     2.3110    -0.3100 ha         1 K3M       0.119000
     19 H8          -0.2850     2.4020    -0.4210 ha         1 K3M       0.116000
@<TRIPOS>BOND
     1     1     2 1   
     2     1     3 ar  
     3     1    10 ar  
     4     2     5 1   
     5     2     7 2   
     6     3     4 ar  
     7     3    11 1   
     8     4     8 ar  
     9     4    12 1   
    10     5    13 1   
    11     5    14 1   
    12     6     8 1   
    13     6    15 1   
    14     6    16 1   
    15     6    17 1   
    16     8     9 ar  
    17     9    10 ar  
    18     9    18 1   
    19    10    19 1   
@<TRIPOS>SUBSTRUCTURE
     1 K3M         1 TEMP              0 ****  ****    0 ROOT
