@<TRIPOS>MOLECULE
K3N
   74    77     1     0     0
SMALL
abcg2


@<TRIPOS>ATOM
      1 C29         -3.4560     2.0850     0.1970 c6         1 K3N      -0.128000
      2 C28         -3.9980     2.3890    -1.2080 c6         1 K3N      -0.069400
      3 C27         -5.2470     3.2590    -1.1270 c6         1 K3N      -0.076400
      4 C26         -6.3200     2.6000    -0.2670 c6         1 K3N      -0.078400
      5 C25         -5.7920     2.2800     1.1280 c6         1 K3N      -0.055400
      6 C23         -4.7640     0.0070     0.6860 c          1 K3N       0.556000
      7 C5           4.5970    -1.3620    -0.0010 c          1 K3N       0.641300
      8 C6           3.5040    -0.4100    -0.0560 cg         1 K3N      -0.176200
      9 C1          10.7710    -0.5250     0.0990 c3         1 K3N      -0.089100
     10 C8           1.4870     1.2690    -0.1220 ca         1 K3N      -0.034000
     11 C9           1.7330     2.6500    -0.2690 ca         1 K3N       0.179100
     12 C2           9.5540    -1.4400     0.0920 c3         1 K3N      -0.073400
     13 C10          3.3220     4.3890    -0.5070 c3         1 K3N       0.145900
     14 C3           8.2470    -0.6600     0.0430 c3         1 K3N      -0.096400
     15 C4           7.0350    -1.5780     0.0360 c3         1 K3N       0.106000
     16 C11          0.6530     3.5240    -0.2850 ca         1 K3N      -0.214000
     17 C13         -0.9040     1.6760    -0.0060 ca         1 K3N      -0.158900
     18 C16         -3.6720    -2.1030    -0.0070 c3         1 K3N       0.134700
     19 C12         -0.6390     3.0360    -0.1520 ca         1 K3N      -0.042000
     20 C14          0.1850     0.8040     0.0030 ca         1 K3N      -0.010000
     21 C15         -2.2780     1.1620     0.1240 ce         1 K3N       0.397900
     22 C17         -3.2590    -2.3940    -1.4470 c3         1 K3N      -0.080900
     23 C18         -3.2010    -3.8740    -1.8220 c3         1 K3N      -0.067900
     24 C19         -2.0240    -4.6180    -1.1880 c3         1 K3N      -0.071400
     25 C20         -2.2860    -5.1890     0.2070 c3         1 K3N      -0.071400
     26 C21         -3.1440    -4.3210     1.1270 c3         1 K3N      -0.067900
     27 C22         -2.8610    -2.8180     1.0770 c3         1 K3N      -0.080900
     28 C24         -4.5160     1.4430     1.0890 c6         1 K3N      -0.142700
     29 N1           5.8110    -0.8020    -0.0180 ns         1 K3N      -0.500900
     30 N2          -2.4240    -0.1050     0.1360 n2         1 K3N      -0.446300
     31 N3          -3.6640    -0.6550     0.2220 n          1 K3N      -0.175800
     32 O1           4.3930    -2.5670     0.0590 o          1 K3N      -0.589100
     33 O3          -5.8420    -0.5460     0.8200 o          1 K3N      -0.535000
     34 H1          -3.1710     3.0280     0.6690 hc         1 K3N       0.066700
     35 H2          -3.2270     2.8830    -1.8040 hc         1 K3N       0.050700
     36 H3          -4.2360     1.4530    -1.7250 hc         1 K3N       0.050700
     37 H4          -4.9830     4.2320    -0.7010 hc         1 K3N       0.040200
     38 H5          -5.6300     3.4520    -2.1310 hc         1 K3N       0.040200
     39 H6          -7.1920     3.2520    -0.1870 hc         1 K3N       0.049700
     40 H7          -6.6640     1.6830    -0.7550 hc         1 K3N       0.049700
     41 H8          -5.5570     3.2150     1.6450 hc         1 K3N       0.052200
     42 H9          -6.5530     1.7780     1.7250 hc         1 K3N       0.052200
     43 H10         10.7580     0.1380     0.9650 hc         1 K3N       0.033367
     44 H11         11.6990    -1.0960     0.1330 hc         1 K3N       0.033367
     45 H12         10.7980     0.0990    -0.7960 hc         1 K3N       0.033367
     46 H13          9.6070    -2.1160    -0.7660 hc         1 K3N       0.042700
     47 H14          9.5650    -2.0750     0.9830 hc         1 K3N       0.042700
     48 H15          4.4050     4.4530    -0.5700 h1         1 K3N       0.045367
     49 H16          2.8880     4.8180    -1.4130 h1         1 K3N       0.045367
     50 H17          2.9810     4.9610     0.3580 h1         1 K3N       0.045367
     51 H18          8.1900     0.0130     0.9040 hc         1 K3N       0.043200
     52 H19          8.2320    -0.0290    -0.8520 hc         1 K3N       0.043200
     53 H20          7.0850    -2.2530    -0.8240 h1         1 K3N       0.052200
     54 H21          7.0370    -2.2030     0.9330 h1         1 K3N       0.052200
     55 H22          0.7950     4.5890    -0.3970 ha         1 K3N       0.122000
     56 H23         -4.7100    -2.4150     0.1110 h1         1 K3N       0.076700
     57 H24         -1.4440     3.7580    -0.1670 ha         1 K3N       0.115000
     58 H25          0.0210    -0.2590     0.1160 ha         1 K3N       0.148000
     59 H26         -3.9690    -1.8840    -2.1050 hc         1 K3N       0.048700
     60 H27         -2.2790    -1.9500    -1.6430 hc         1 K3N       0.048700
     61 H28         -4.1480    -4.3670    -1.5780 hc         1 K3N       0.038450
     62 H29         -3.1090    -3.9300    -2.9090 hc         1 K3N       0.038450
     63 H30         -1.7140    -5.4390    -1.8380 hc         1 K3N       0.037700
     64 H31         -1.1680    -3.9370    -1.1530 hc         1 K3N       0.037700
     65 H32         -2.7700    -6.1660     0.1140 hc         1 K3N       0.037700
     66 H33         -1.3220    -5.3810     0.6870 hc         1 K3N       0.037700
     67 H34         -4.2040    -4.4810     0.9020 hc         1 K3N       0.038450
     68 H35         -3.0100    -4.6760     2.1510 hc         1 K3N       0.038450
     69 H36         -1.7910    -2.6240     0.9530 hc         1 K3N       0.048700
     70 H37         -3.1440    -2.3790     2.0370 hc         1 K3N       0.048700
     71 H38         -4.1080     1.3830     2.1080 hc         1 K3N       0.076700
     72 H39          5.8800     0.2020    -0.0710 hn         1 K3N       0.322500
     73 O2           3.0110     3.0120    -0.3780 os         1 K3N      -0.329100
     74 C7           2.5790     0.3620    -0.0900 ch         1 K3N      -0.029000
@<TRIPOS>BOND
     1     1     2 1   
     2     1    21 1   
     3     1    28 1   
     4     1    34 1   
     5     2     3 1   
     6     2    35 1   
     7     2    36 1   
     8     3     4 1   
     9     3    37 1   
    10     3    38 1   
    11     4     5 1   
    12     4    39 1   
    13     4    40 1   
    14     5    28 1   
    15     5    41 1   
    16     5    42 1   
    17     6    28 1   
    18     6    31 1   
    19     6    33 2   
    20     7     8 1   
    21     7    29 1   
    22     7    32 2   
    23     8    74 3   
    24     9    12 1   
    25     9    43 1   
    26     9    44 1   
    27     9    45 1   
    28    10    11 ar  
    29    10    20 ar  
    30    10    74 1   
    31    11    16 ar  
    32    11    73 1   
    33    12    14 1   
    34    12    46 1   
    35    12    47 1   
    36    13    48 1   
    37    13    49 1   
    38    13    50 1   
    39    13    73 1   
    40    14    15 1   
    41    14    51 1   
    42    14    52 1   
    43    15    29 1   
    44    15    53 1   
    45    15    54 1   
    46    16    19 ar  
    47    16    55 1   
    48    17    19 ar  
    49    17    20 ar  
    50    17    21 1   
    51    18    22 1   
    52    18    27 1   
    53    18    31 1   
    54    18    56 1   
    55    19    57 1   
    56    20    58 1   
    57    21    30 2   
    58    22    23 1   
    59    22    59 1   
    60    22    60 1   
    61    23    24 1   
    62    23    61 1   
    63    23    62 1   
    64    24    25 1   
    65    24    63 1   
    66    24    64 1   
    67    25    26 1   
    68    25    65 1   
    69    25    66 1   
    70    26    27 1   
    71    26    67 1   
    72    26    68 1   
    73    27    69 1   
    74    27    70 1   
    75    28    71 1   
    76    29    72 1   
    77    30    31 1   
@<TRIPOS>SUBSTRUCTURE
     1 K3N         1 TEMP              0 ****  ****    0 ROOT
