@<TRIPOS>MOLECULE
K3N
   74    77     1     0     0
SMALL
No Charge or Current Charge


@<TRIPOS>ATOM
      1 C29         -3.3510     2.0710     0.3610 c6         1 K3N      -0.128000
      2 C28         -3.8910     2.3240    -1.0820 c6         1 K3N      -0.069400
      3 C27         -5.1620     3.2010    -1.0870 c6         1 K3N      -0.076400
      4 C26         -6.2620     2.5710    -0.2050 c6         1 K3N      -0.078400
      5 C25         -5.7480     2.3680     1.2380 c6         1 K3N      -0.055400
      6 C23         -4.7070    -0.0160     0.9940 c          1 K3N       0.556000
      7 C5           4.8520    -1.3200     0.5750 c          1 K3N       0.641300
      8 C6           3.6860    -0.4750     0.4140 cg         1 K3N      -0.176200
      9 C1          11.0390    -0.0960    -0.2420 c3         1 K3N      -0.089100
     10 C8           1.6720     1.2110     0.0720 ca         1 K3N      -0.034000
     11 C9           1.9110     2.5510    -0.3040 ca         1 K3N       0.179100
     12 C2           9.8910    -1.0560     0.1240 c3         1 K3N      -0.073400
     13 C10          3.5460     4.3210    -0.8730 c3         1 K3N       0.145900
     14 C3           8.4980    -0.3960     0.0350 c3         1 K3N      -0.096400
     15 C4           7.3530    -1.3590     0.4010 c3         1 K3N       0.106000
     16 C11          0.8150     3.4200    -0.4850 ca         1 K3N      -0.214000
     17 C13         -0.7530     1.6290     0.1010 ca         1 K3N      -0.158900
     18 C16         -3.8520    -2.1410    -0.0470 c3         1 K3N       0.134700
     19 C12         -0.4990     2.9640    -0.2900 ca         1 K3N      -0.042000
     20 C14          0.3520     0.7600     0.2660 ca         1 K3N      -0.010000
     21 C15         -2.1550     1.1060     0.2880 ce         1 K3N       0.397900
     22 C17         -3.3080    -2.3810    -1.4810 c3         1 K3N      -0.080900
     23 C18         -3.5190    -3.7990    -2.0640 c3         1 K3N      -0.067900
     24 C19         -2.6060    -4.8690    -1.4260 c3         1 K3N      -0.071400
     25 C20         -3.1140    -5.4980    -0.1070 c3         1 K3N      -0.071400
     26 C21         -3.8590    -4.5690     0.8790 c3         1 K3N      -0.067900
     27 C22         -3.3040    -3.1320     1.0160 c3         1 K3N      -0.080900
     28 C24         -4.4640     1.4850     1.2970 c6         1 K3N      -0.142700
     29 N1           6.0490    -0.7050     0.3070 ns         1 K3N      -0.500900
     30 N2          -2.3570    -0.1770     0.3520 n2         1 K3N      -0.446300
     31 N3          -3.6330    -0.7330     0.3810 n          1 K3N      -0.175800
     32 O1           4.7620    -2.4890     0.9220 o          1 K3N      -0.589100
     33 O3          -5.7300    -0.5760     1.3720 o          1 K3N      -0.535000
     34 H1          -3.0270     3.0280     0.7920 hc         1 K3N       0.066700
     35 H2          -3.1190     2.8010    -1.7000 hc         1 K3N       0.050700
     36 H3          -4.1150     1.3660    -1.5710 hc         1 K3N       0.050700
     37 H4          -4.9210     4.2090    -0.7220 hc         1 K3N       0.040200
     38 H5          -5.5300     3.3190    -2.1150 hc         1 K3N       0.040200
     39 H6          -7.1490     3.2200    -0.1970 hc         1 K3N       0.049700
     40 H7          -6.5820     1.6100    -0.6310 hc         1 K3N       0.049700
     41 H8          -5.5310     3.3500     1.6820 hc         1 K3N       0.052200
     42 H9          -6.5410     1.9300     1.8590 hc         1 K3N       0.052200
     43 H10         11.0530     0.7680     0.4340 hc         1 K3N       0.033367
     44 H11         12.0050    -0.6080    -0.1640 hc         1 K3N       0.033367
     45 H12         10.9260     0.2710    -1.2700 hc         1 K3N       0.033367
     46 H13          9.9250    -1.9250    -0.5460 hc         1 K3N       0.042700
     47 H14         10.0510    -1.4320     1.1430 hc         1 K3N       0.042700
     48 H15          4.6340     4.4350    -0.9610 h1         1 K3N       0.045367
     49 H16          3.0990     4.5710    -1.8430 h1         1 K3N       0.045367
     50 H17          3.1890     5.0380    -0.1230 h1         1 K3N       0.045367
     51 H18          8.4660     0.4720     0.7060 hc         1 K3N       0.043200
     52 H19          8.3400    -0.0220    -0.9850 hc         1 K3N       0.043200
     53 H20          7.3660    -2.2220    -0.2780 h1         1 K3N       0.052200
     54 H21          7.4930    -1.7250     1.4270 h1         1 K3N       0.052200
     55 H22          0.9600     4.4540    -0.7810 ha         1 K3N       0.122000
     56 H23         -4.9360    -2.3060    -0.1100 h1         1 K3N       0.076700
     57 H24         -1.3100     3.6670    -0.4530 ha         1 K3N       0.115000
     58 H25          0.1940    -0.2770     0.5550 ha         1 K3N       0.148000
     59 H26         -3.7980    -1.6620    -2.1500 hc         1 K3N       0.048700
     60 H27         -2.2380    -2.1430    -1.5150 hc         1 K3N       0.048700
     61 H28         -4.5730    -4.0950    -1.9860 hc         1 K3N       0.038450
     62 H29         -3.2900    -3.7550    -3.1360 hc         1 K3N       0.038450
     63 H30         -2.4600    -5.6810    -2.1500 hc         1 K3N       0.037700
     64 H31         -1.6110    -4.4390    -1.2590 hc         1 K3N       0.037700
     65 H32         -3.7800    -6.3350    -0.3510 hc         1 K3N       0.037700
     66 H33         -2.2530    -5.9410     0.4090 hc         1 K3N       0.037700
     67 H34         -4.9180    -4.5190     0.5970 hc         1 K3N       0.038450
     68 H35         -3.8390    -5.0450     1.8670 hc         1 K3N       0.038450
     69 H36         -2.2070    -3.1390     1.0050 hc         1 K3N       0.048700
     70 H37         -3.5990    -2.7590     2.0050 hc         1 K3N       0.048700
     71 H38         -4.0730     1.5020     2.3240 hc         1 K3N       0.076700
     72 H39          6.0040     0.2670     0.0270 hn         1 K3N       0.322500
     73 O2           3.2170     2.9740    -0.4900 os         1 K3N      -0.329100
     74 C7           2.7510     0.2960     0.2590 ch         1 K3N      -0.029000
@<TRIPOS>BOND
     1     1     2 1   
     2     1    21 1   
     3     1    28 1   
     4     1    34 1   
     5     2     3 1   
     6     2    35 1   
     7     2    36 1   
     8     3     4 1   
     9     3    37 1   
    10     3    38 1   
    11     4     5 1   
    12     4    39 1   
    13     4    40 1   
    14     5    28 1   
    15     5    41 1   
    16     5    42 1   
    17     6    28 1   
    18     6    31 1   
    19     6    33 2   
    20     7     8 1   
    21     7    29 1   
    22     7    32 2   
    23     8    74 3   
    24     9    12 1   
    25     9    43 1   
    26     9    44 1   
    27     9    45 1   
    28    10    11 ar  
    29    10    20 ar  
    30    10    74 1   
    31    11    16 ar  
    32    11    73 1   
    33    12    14 1   
    34    12    46 1   
    35    12    47 1   
    36    13    48 1   
    37    13    49 1   
    38    13    50 1   
    39    13    73 1   
    40    14    15 1   
    41    14    51 1   
    42    14    52 1   
    43    15    29 1   
    44    15    53 1   
    45    15    54 1   
    46    16    19 ar  
    47    16    55 1   
    48    17    19 ar  
    49    17    20 ar  
    50    17    21 1   
    51    18    22 1   
    52    18    27 1   
    53    18    31 1   
    54    18    56 1   
    55    19    57 1   
    56    20    58 1   
    57    21    30 2   
    58    22    23 1   
    59    22    59 1   
    60    22    60 1   
    61    23    24 1   
    62    23    61 1   
    63    23    62 1   
    64    24    25 1   
    65    24    63 1   
    66    24    64 1   
    67    25    26 1   
    68    25    65 1   
    69    25    66 1   
    70    26    27 1   
    71    26    67 1   
    72    26    68 1   
    73    27    69 1   
    74    27    70 1   
    75    28    71 1   
    76    29    72 1   
    77    30    31 1   
@<TRIPOS>SUBSTRUCTURE
     1 K3N         1 TEMP              0 ****  ****    0 ROOT
