@<TRIPOS>MOLECULE
K3O
   37    39     1     0     0
SMALL
No Charge or Current Charge


@<TRIPOS>ATOM
      1 N1          92.4130   -10.0940    14.6820 nb         1 K3O      -0.350000
      2 N3          91.5700    -8.4410    16.2210 nb         1 K3O      -0.304000
      3 C4          93.3130    -9.2050    14.2240 ca         1 K3O       0.466900
      4 C6          93.6810    -5.6660    15.2570 cc         1 K3O      -0.169100
      5 C7          94.2040    -6.7320    14.5410 cd         1 K3O      -0.057400
      6 C8          93.3960    -7.9210    14.7940 ca         1 K3O      -0.289800
      7 C13         97.3560    -7.5240    12.5350 ca         1 K3O      -0.198300
      8 C15         96.2730    -7.6480    13.4350 ca         1 K3O      -0.071000
      9 C17         98.3830    -8.6470    12.3480 c3         1 K3O       0.356300
     10 C22         93.9480   -10.8190    12.3400 c3         1 K3O       0.232800
     11 C2          91.6120    -9.6610    15.6640 ca         1 K3O       0.422900
     12 N5          92.6530    -6.2280    16.0400 na         1 K3O      -0.319400
     13 C9          92.4780    -7.5680    15.7550 ca         1 K3O       0.191500
     14 N10         90.7120   -10.5570    16.1260 nv         1 K3O      -1.047900
     15 C11         95.5250    -5.4060    12.8860 ca         1 K3O      -0.080000
     16 C12         95.3290    -6.6110    13.5910 ca         1 K3O      -0.014800
     17 C14         97.5000    -6.3270    11.8040 ca         1 K3O      -0.067000
     18 C16         96.5960    -5.2710    11.9880 ca         1 K3O      -0.114000
     19 F18         98.1700    -9.7050    13.1640 f          1 K3O      -0.114000
     20 F19         98.3680    -9.1210    11.0820 f          1 K3O      -0.114000
     21 F20         99.6400    -8.2140    12.5930 f          1 K3O      -0.114000
     22 N21         94.0490    -9.5750    13.1130 nu         1 K3O      -0.925100
     23 C23         94.9810   -10.8110    11.2030 c3         1 K3O      -0.116100
     24 H1          93.9750    -4.6210    15.3090 h4         1 K3O       0.218000
     25 H2          96.1870    -8.5360    14.0580 ha         1 K3O       0.140000
     26 H3          94.1340   -11.6860    12.9900 h1         1 K3O       0.053200
     27 H4          92.9400   -10.9220    11.9150 h1         1 K3O       0.053200
     28 H5          92.0860    -5.7210    16.7110 hn         1 K3O       0.362000
     29 H6          90.8480   -11.5360    15.8890 hn         1 K3O       0.481500
     30 H7          90.2360   -10.3560    17.0020 hn         1 K3O       0.481500
     31 H8          94.8280    -4.5810    13.0090 ha         1 K3O       0.121000
     32 H9          98.3260    -6.2080    11.1050 ha         1 K3O       0.130000
     33 H10         96.7240    -4.3440    11.4330 ha         1 K3O       0.121000
     34 H11         94.6020    -8.8200    12.7120 hn         1 K3O       0.501000
     35 H12         94.9010   -11.7320    10.6150 hc         1 K3O       0.044367
     36 H13         94.8160    -9.9600    10.5310 hc         1 K3O       0.044367
     37 H14         95.9990   -10.7480    11.6040 hc         1 K3O       0.044367
@<TRIPOS>BOND
     1     1     3 ar  
     2     1    11 ar  
     3     2    11 ar  
     4     2    13 ar  
     5     3     6 ar  
     6     3    22 1   
     7     4     5 2   
     8     4    12 1   
     9     4    24 1   
    10     5     6 1   
    11     5    16 1   
    12     6    13 ar  
    13     7     8 ar  
    14     7     9 1   
    15     7    17 ar  
    16     8    16 ar  
    17     8    25 1   
    18     9    19 1   
    19     9    20 1   
    20     9    21 1   
    21    10    22 1   
    22    10    23 1   
    23    10    26 1   
    24    10    27 1   
    25    11    14 1   
    26    12    13 1   
    27    12    28 1   
    28    14    29 1   
    29    14    30 1   
    30    15    16 ar  
    31    15    18 ar  
    32    15    31 1   
    33    17    18 ar  
    34    17    32 1   
    35    18    33 1   
    36    22    34 1   
    37    23    35 1   
    38    23    36 1   
    39    23    37 1   
@<TRIPOS>SUBSTRUCTURE
     1 K3O         1 TEMP              0 ****  ****    0 ROOT
