@<TRIPOS>MOLECULE
K3O
   37    39     1     0     0
SMALL
bcc


@<TRIPOS>ATOM
      1 N1          92.3710   -10.0330    14.6100 nb         1 K3O      -0.876000
      2 N3          91.6350    -8.4280    16.2190 nb         1 K3O      -0.830000
      3 C4          93.2600    -9.1960    14.0850 ca         1 K3O       0.795200
      4 C6          93.7960    -5.8040    15.3260 cc         1 K3O      -0.119100
      5 C7          94.2470    -6.7410    14.4380 cd         1 K3O      -0.057400
      6 C8          93.4420    -7.9130    14.6590 ca         1 K3O      -0.420400
      7 C13         97.4470    -7.3700    12.5690 ca         1 K3O      -0.198300
      8 C15         96.3730    -7.5350    13.4320 ca         1 K3O      -0.089000
      9 C17         98.5150    -8.4170    12.5000 c3         1 K3O       0.720200
     10 C22         93.7600   -10.8840    12.3620 c3         1 K3O       0.232800
     11 C2          91.6220    -9.6240    15.6470 ca         1 K3O       0.948900
     12 N5          92.7780    -6.3340    16.0760 na         1 K3O      -0.269100
     13 C9          92.5520    -7.6140    15.6940 ca         1 K3O       0.519800
     14 N10         90.7190   -10.5280    16.1140 nv         1 K3O      -0.937500
     15 C11         95.5070    -5.4030    12.7550 ca         1 K3O      -0.098000
     16 C12         95.3790    -6.5590    13.5280 ca         1 K3O      -0.014800
     17 C14         97.5670    -6.2130    11.8080 ca         1 K3O      -0.085000
     18 C16         96.5950    -5.2300    11.9140 ca         1 K3O      -0.132000
     19 F18         98.0640    -9.6310    12.8340 f          1 K3O      -0.235300
     20 F19         99.0400    -8.5180    11.2730 f          1 K3O      -0.235300
     21 F20         99.5320    -8.1440    13.3310 f          1 K3O      -0.235300
     22 N21         93.9560    -9.6070    13.0140 nu         1 K3O      -0.869900
     23 C23         94.7300   -11.0270    11.2040 c3         1 K3O      -0.116100
     24 H1          94.1540    -4.8030    15.5070 h4         1 K3O       0.168000
     25 H2          96.3040    -8.4170    14.0560 ha         1 K3O       0.158000
     26 H3          93.9160   -11.6900    13.0820 h1         1 K3O       0.053200
     27 H4          92.7310   -10.9800    12.0020 h1         1 K3O       0.053200
     28 H5          92.2900    -5.8560    16.8170 hn         1 K3O       0.311700
     29 H6          90.8750   -11.4940    15.8810 hn         1 K3O       0.426300
     30 H7          90.3360   -10.3620    17.0290 hn         1 K3O       0.426300
     31 H8          94.7390    -4.6420    12.8050 ha         1 K3O       0.139000
     32 H9          98.4000    -6.0680    11.1320 ha         1 K3O       0.148000
     33 H10         96.6780    -4.3290    11.3220 ha         1 K3O       0.139000
     34 H11         94.5140    -8.9250    12.5280 hn         1 K3O       0.445800
     35 H12         94.5990   -11.9950    10.7240 hc         1 K3O       0.044367
     36 H13         94.5630   -10.2560    10.4500 hc         1 K3O       0.044367
     37 H14         95.7640   -10.9560    11.5410 hc         1 K3O       0.044367
@<TRIPOS>BOND
     1     1     3 ar  
     2     1    11 ar  
     3     2    11 ar  
     4     2    13 ar  
     5     3     6 ar  
     6     3    22 1   
     7     4     5 2   
     8     4    12 1   
     9     4    24 1   
    10     5     6 1   
    11     5    16 1   
    12     6    13 ar  
    13     7     8 ar  
    14     7     9 1   
    15     7    17 ar  
    16     8    16 ar  
    17     8    25 1   
    18     9    19 1   
    19     9    20 1   
    20     9    21 1   
    21    10    22 1   
    22    10    23 1   
    23    10    26 1   
    24    10    27 1   
    25    11    14 1   
    26    12    13 1   
    27    12    28 1   
    28    14    29 1   
    29    14    30 1   
    30    15    16 ar  
    31    15    18 ar  
    32    15    31 1   
    33    17    18 ar  
    34    17    32 1   
    35    18    33 1   
    36    22    34 1   
    37    23    35 1   
    38    23    36 1   
    39    23    37 1   
@<TRIPOS>SUBSTRUCTURE
     1 K3O         1 TEMP              0 ****  ****    0 ROOT
