@<TRIPOS>MOLECULE
K3Q
   30    30     1     0     0
SMALL
No Charge or Current Charge


@<TRIPOS>ATOM
      1 C1         -47.6650   -11.9630    21.7260 c6         1 K3Q       0.409300
      2 O1         -47.7540   -11.7840    20.3210 oh         1 K3Q      -0.639000
      3 C2         -48.2020   -13.3810    22.1110 c6         1 K3Q       0.073300
      4 O2         -49.5770   -13.5550    21.6950 oh         1 K3Q      -0.726000
      5 O5         -46.2810   -11.8420    22.0880 os         1 K3Q      -0.430000
      6 C5         -46.0320   -11.9650    23.5130 c6         1 K3Q       0.181300
      7 C4         -46.5010   -13.3730    24.0020 c6         1 K3Q       0.134300
      8 O4         -46.3080   -13.5640    25.4160 oh         1 K3Q      -0.716000
      9 C3         -48.0030   -13.5750    23.6500 c6         1 K3Q       0.104300
     10 O3         -48.4530   -14.8670    24.1410 os         1 K3Q      -0.470000
     11 C6         -44.5100   -11.7300    23.7530 c3         1 K3Q       0.168600
     12 O6         -44.1750   -10.3550    23.4690 os         1 K3Q      -0.442000
     13 C7         -49.8340   -14.9930    24.5400 c3         1 K3Q       0.145900
     14 C8         -42.7870   -10.0300    23.6500 c3         1 K3Q       0.146900
     15 H1         -48.2550   -11.1870    22.2390 h2         1 K3Q       0.033700
     16 H2         -48.6320   -12.1690    20.1010 ho         1 K3Q       0.471000
     17 H3         -47.5680   -14.1210    21.5990 h1         1 K3Q       0.066700
     18 H4         -49.8080   -14.4970    21.8740 ho         1 K3Q       0.517000
     19 H5         -46.5930   -11.1850    24.0470 h1         1 K3Q       0.062700
     20 H6         -45.9210   -14.1300    23.4510 h1         1 K3Q       0.054700
     21 H7         -46.8890   -14.3280    25.6510 ho         1 K3Q       0.520000
     22 H8         -48.5730   -12.7910    24.1730 h1         1 K3Q       0.062700
     23 H9         -44.2740   -11.9640    24.8000 h1         1 K3Q       0.040200
     24 H10        -43.9370   -12.4150    23.1140 h1         1 K3Q       0.040200
     25 H11        -50.0230   -16.0000    24.9340 h1         1 K3Q       0.035367
     26 H12        -50.0770   -14.2720    25.3310 h1         1 K3Q       0.035367
     27 H13        -50.5190   -14.8290    23.7010 h1         1 K3Q       0.035367
     28 H14        -42.6080    -8.9730    23.4160 h1         1 K3Q       0.028700
     29 H15        -42.4770   -10.2080    24.6890 h1         1 K3Q       0.028700
     30 H16        -42.1540   -10.6380    22.9900 h1         1 K3Q       0.028700
@<TRIPOS>BOND
     1     1     2 1   
     2     1     3 1   
     3     1     5 1   
     4     1    15 1   
     5     2    16 1   
     6     3     4 1   
     7     3     9 1   
     8     3    17 1   
     9     4    18 1   
    10     5     6 1   
    11     6     7 1   
    12     6    11 1   
    13     6    19 1   
    14     7     8 1   
    15     7     9 1   
    16     7    20 1   
    17     8    21 1   
    18     9    10 1   
    19     9    22 1   
    20    10    13 1   
    21    11    12 1   
    22    11    23 1   
    23    11    24 1   
    24    12    14 1   
    25    13    25 1   
    26    13    26 1   
    27    13    27 1   
    28    14    28 1   
    29    14    29 1   
    30    14    30 1   
@<TRIPOS>SUBSTRUCTURE
     1 K3Q         1 TEMP              0 ****  ****    0 ROOT
