@<TRIPOS>MOLECULE
K3Q
   30    30     1     0     0
SMALL
bcc


@<TRIPOS>ATOM
      1 C1         -47.6350   -11.9960    21.7210 c6         1 K3Q       0.362900
      2 O1         -47.6270   -11.7820    20.3510 oh         1 K3Q      -0.576800
      3 C2         -48.1820   -13.3730    22.0980 c6         1 K3Q       0.050100
      4 O2         -49.5290   -13.4150    21.6840 oh         1 K3Q      -0.603800
      5 O5         -46.2960   -11.9000    22.1040 os         1 K3Q      -0.383600
      6 C5         -46.0960   -11.9830    23.5000 c6         1 K3Q       0.158100
      7 C4         -46.5670   -13.3480    24.0060 c6         1 K3Q       0.111100
      8 O4         -46.4150   -13.3790    25.4020 oh         1 K3Q      -0.593800
      9 C3         -48.0230   -13.5660    23.6010 c6         1 K3Q       0.081100
     10 O3         -48.4040   -14.8650    23.9960 os         1 K3Q      -0.423600
     11 C6         -44.6230   -11.7620    23.7680 c3         1 K3Q       0.145400
     12 O6         -44.2800   -10.4530    23.3970 os         1 K3Q      -0.395600
     13 C7         -49.6590   -14.9550    24.6350 c3         1 K3Q       0.122700
     14 C8         -42.9270   -10.1640    23.6400 c3         1 K3Q       0.123700
     15 H1         -48.2320   -11.2220    22.2420 h2         1 K3Q       0.033700
     16 H2         -48.4910   -12.0310    20.0020 ho         1 K3Q       0.432000
     17 H3         -47.5840   -14.1310    21.5720 h1         1 K3Q       0.066700
     18 H4         -49.7720   -14.3270    21.5040 ho         1 K3Q       0.418000
     19 H5         -46.6760   -11.1990    24.0130 h1         1 K3Q       0.062700
     20 H6         -45.9510   -14.1250    23.5250 h1         1 K3Q       0.054700
     21 H7         -46.6700   -14.2540    25.7100 ho         1 K3Q       0.421000
     22 H8         -48.6350   -12.8110    24.1200 h1         1 K3Q       0.062700
     23 H9         -44.4230   -11.9330    24.8330 h1         1 K3Q       0.040200
     24 H10        -44.0340   -12.5020    23.2050 h1         1 K3Q       0.040200
     25 H11        -49.7930   -15.9910    24.9450 h1         1 K3Q       0.035367
     26 H12        -49.7100   -14.3200    25.5260 h1         1 K3Q       0.035367
     27 H13        -50.4880   -14.6830    23.9760 h1         1 K3Q       0.035367
     28 H14        -42.7480    -9.1280    23.3550 h1         1 K3Q       0.028700
     29 H15        -42.6650   -10.2820    24.6980 h1         1 K3Q       0.028700
     30 H16        -42.2560   -10.8040    23.0540 h1         1 K3Q       0.028700
@<TRIPOS>BOND
     1     1     2 1   
     2     1     3 1   
     3     1     5 1   
     4     1    15 1   
     5     2    16 1   
     6     3     4 1   
     7     3     9 1   
     8     3    17 1   
     9     4    18 1   
    10     5     6 1   
    11     6     7 1   
    12     6    11 1   
    13     6    19 1   
    14     7     8 1   
    15     7     9 1   
    16     7    20 1   
    17     8    21 1   
    18     9    10 1   
    19     9    22 1   
    20    10    13 1   
    21    11    12 1   
    22    11    23 1   
    23    11    24 1   
    24    12    14 1   
    25    13    25 1   
    26    13    26 1   
    27    13    27 1   
    28    14    28 1   
    29    14    29 1   
    30    14    30 1   
@<TRIPOS>SUBSTRUCTURE
     1 K3Q         1 TEMP              0 ****  ****    0 ROOT
