@<TRIPOS>MOLECULE
K3R
   70    75     1     0     0
SMALL
bcc


@<TRIPOS>ATOM
      1 C1          16.6120    12.4690   -20.9560 c3         1 K3R       0.043600
      2 C3          15.5330    11.7530   -18.8210 cc         1 K3R      -0.123300
      3 C4          14.2280    11.5230   -18.4240 cd         1 K3R      -0.223300
      4 C5          13.4810    11.8000   -19.5880 cd         1 K3R       0.321200
      5 C7          13.7440    11.0970   -17.1130 ca         1 K3R       0.025000
      6 C8          14.6090    10.5710   -16.1520 ca         1 K3R      -0.129000
      7 C15          9.8770     5.7600   -14.1070 ca         1 K3R       0.591100
      8 C17         12.1210     5.9300   -14.3570 ca         1 K3R       0.699900
      9 C19          8.6680     4.9680   -14.1700 cc         1 K3R      -0.284900
     10 C23          6.8340     1.9580   -14.6800 cc         1 K3R      -0.233000
     11 C24          7.7800     1.0270   -15.0240 cd         1 K3R       0.174100
     12 O25          7.5370    -0.2570   -15.2940 os         1 K3R      -0.314900
     13 C27          6.2000    -2.2260   -15.4600 c3         1 K3R      -0.078400
     14 C30          5.6260    -5.0660   -14.4660 c5         1 K3R       0.157800
     15 C31          5.9390    -6.5630   -14.4560 c5         1 K3R      -0.079400
     16 C32          7.4030    -6.6430   -13.9720 c5         1 K3R      -0.079400
     17 C33          7.8060    -5.1850   -13.7550 c5         1 K3R       0.157800
     18 C34          9.1440     1.4200   -15.1120 cd         1 K3R      -0.200000
     19 C35          9.5170     2.6950   -14.8530 cc         1 K3R      -0.020300
     20 C37         11.9240    10.7930   -15.5420 ca         1 K3R      -0.107000
     21 C38         12.3900    11.2000   -16.7810 ca         1 K3R      -0.129000
     22 N2          15.4950    12.1290   -20.1080 na         1 K3R       0.113400
     23 N6          14.2580    12.1600   -20.5910 nc         1 K3R      -0.525800
     24 C9          14.1380    10.1650   -14.9130 ca         1 K3R      -0.107000
     25 C10         12.7910    10.2710   -14.5870 ca         1 K3R      -0.109300
     26 N12         11.0860     9.0670   -13.2490 nu         1 K3R      -0.875900
     27 C13         11.0440     7.7870   -13.6540 ca         1 K3R       0.720200
     28 C14          9.8320     7.0840   -13.7090 ca         1 K3R      -0.443600
     29 N16         11.0440     5.1740   -14.4390 nb         1 K3R      -0.789000
     30 N18         12.1990     7.1940   -13.9880 nb         1 K3R      -0.783000
     31 C20          7.3640     5.3350   -13.9090 cd         1 K3R       0.064600
     32 N21          6.5010     4.3160   -14.0550 nd         1 K3R      -0.313600
     33 C22          7.2440     3.2760   -14.4120 cc         1 K3R       0.021700
     34 C26          6.2000    -0.7360   -15.2040 c3         1 K3R       0.137400
     35 C28          6.9530    -3.0160   -14.3970 c3         1 K3R       0.172800
     36 N29          6.9260    -4.4400   -14.6390 n3         1 K3R      -0.717600
     37 N36          8.5780     3.6200   -14.5000 na         1 K3R       0.040700
     38 H1          16.4980    13.4780   -21.3450 h1         1 K3R       0.056700
     39 H2          17.5270    12.4170   -20.3720 h1         1 K3R       0.056700
     40 H3          16.6840    11.7700   -21.7880 h1         1 K3R       0.056700
     41 H4          16.4640    11.6890   -18.2810 h4         1 K3R       0.171000
     42 H5          12.4120    11.7390   -19.7280 h4         1 K3R       0.039100
     43 H6          15.6620    10.4540   -16.3760 ha         1 K3R       0.128000
     44 H7          13.0800     9.3200   -12.6920 h1         1 K3R       0.058700
     45 H8          12.0680    10.7460   -12.6300 h1         1 K3R       0.058700
     46 H9          13.0590     5.4550   -14.6270 h5         1 K3R       0.042100
     47 H10          5.7790     1.7380   -14.5990 ha         1 K3R       0.165000
     48 H11          5.1520    -2.5340   -15.4890 hc         1 K3R       0.060200
     49 H12          6.6150    -2.4380   -16.4490 hc         1 K3R       0.060200
     50 H14          5.1630    -4.7650   -13.5100 h1         1 K3R       0.034200
     51 H15          5.2520    -7.1080   -13.8100 hc         1 K3R       0.046700
     52 H16          5.8400    -6.9830   -15.4570 hc         1 K3R       0.046700
     53 H17          7.5110    -7.2260   -13.0580 hc         1 K3R       0.046700
     54 H18          8.0340    -7.1120   -14.7280 hc         1 K3R       0.046700
     55 H19          8.8540    -4.9870   -13.9890 h1         1 K3R       0.034200
     56 H20          7.6490    -4.9010   -12.7000 h1         1 K3R       0.034200
     57 H21          9.8980     0.6970   -15.3880 ha         1 K3R       0.164000
     58 H22         10.5360     3.0410   -14.9060 h4         1 K3R       0.202000
     59 H23         10.8670    10.8860   -15.3200 ha         1 K3R       0.127500
     60 H24         11.6870    11.6120   -17.4940 ha         1 K3R       0.128000
     61 H25         14.8330     9.7510   -14.1920 ha         1 K3R       0.127500
     62 H26         10.2160     9.5240   -13.0360 hn         1 K3R       0.439800
     63 H27          8.9050     7.5710   -13.4370 ha         1 K3R       0.146000
     64 H28          7.0210     6.3170   -13.6170 h4         1 K3R       0.172000
     65 H29          5.5710    -0.2220   -15.9380 h1         1 K3R       0.041200
     66 H30          5.7930    -0.5220   -14.2090 h1         1 K3R       0.041200
     67 H31          7.9980    -2.6970   -14.3840 h1         1 K3R       0.036200
     68 H32          6.5370    -2.7700   -13.4020 h1         1 K3R       0.036200
     69 C11         12.2930     9.8580   -13.2230 c3         1 K3R       0.288100
     70 H13          4.9330    -4.7890   -15.2620 h1         1 K3R       0.034200
@<TRIPOS>BOND
     1     1    22 1   
     2     1    38 1   
     3     1    39 1   
     4     1    40 1   
     5     2     3 2   
     6     2    22 1   
     7     2    41 1   
     8     3     4 1   
     9     3     5 1   
    10     4    23 2   
    11     4    42 1   
    12     5     6 ar  
    13     5    21 ar  
    14     6    24 ar  
    15     6    43 1   
    16     7     9 1   
    17     7    28 ar  
    18     7    29 ar  
    19     8    29 ar  
    20     8    30 ar  
    21     8    46 1   
    22     9    31 2   
    23     9    37 1   
    24    10    11 2   
    25    10    33 1   
    26    10    47 1   
    27    11    12 1   
    28    11    18 1   
    29    12    34 1   
    30    13    34 1   
    31    13    35 1   
    32    13    48 1   
    33    13    49 1   
    34    14    15 1   
    35    14    36 1   
    36    14    50 1   
    37    14    70 1   
    38    15    16 1   
    39    15    51 1   
    40    15    52 1   
    41    16    17 1   
    42    16    53 1   
    43    16    54 1   
    44    17    36 1   
    45    17    55 1   
    46    17    56 1   
    47    18    19 2   
    48    18    57 1   
    49    19    37 1   
    50    19    58 1   
    51    20    21 ar  
    52    20    25 ar  
    53    20    59 1   
    54    21    60 1   
    55    22    23 1   
    56    24    25 ar  
    57    24    61 1   
    58    25    69 1   
    59    26    27 1   
    60    26    62 1   
    61    26    69 1   
    62    27    28 ar  
    63    27    30 ar  
    64    28    63 1   
    65    31    32 1   
    66    31    64 1   
    67    32    33 2   
    68    33    37 1   
    69    34    65 1   
    70    34    66 1   
    71    35    36 1   
    72    35    67 1   
    73    35    68 1   
    74    44    69 1   
    75    45    69 1   
@<TRIPOS>SUBSTRUCTURE
     1 K3R         1 TEMP              0 ****  ****    0 ROOT
