@<TRIPOS>MOLECULE
K3R
   70    75     1     0     0
SMALL
No Charge or Current Charge


@<TRIPOS>ATOM
      1 C1          15.6260    12.0190   -21.3970 c3         1 K3R       0.072900
      2 C3          14.8760    11.3970   -19.0390 cc         1 K3R      -0.156000
      3 C4          13.7620    11.7290   -18.3140 cd         1 K3R      -0.158000
      4 C5          12.9850    12.5680   -19.1500 cd         1 K3R       0.255900
      5 C7          13.4420    11.2960   -16.9390 ca         1 K3R       0.025000
      6 C8          14.3210    10.4530   -16.2270 ca         1 K3R      -0.111000
      7 C15         10.4950     5.6730   -14.1690 ca         1 K3R       0.262800
      8 C17         12.7810     5.9310   -14.0880 ca         1 K3R       0.173900
      9 C19          9.3130     4.8690   -14.4910 cc         1 K3R      -0.284900
     10 C23          7.4410     1.9400   -15.3810 cc         1 K3R      -0.215000
     11 C24          8.2970     0.9190   -15.0280 cd         1 K3R       0.174100
     12 O25          7.9680    -0.4040   -15.1810 os         1 K3R      -0.338100
     13 C27          6.6520    -2.3460   -15.7570 c3         1 K3R      -0.078400
     14 C30          5.4670    -5.1100   -14.8790 c5         1 K3R       0.157800
     15 C31          5.7460    -6.6140   -14.6070 c5         1 K3R      -0.079400
     16 C32          6.7420    -6.6040   -13.4040 c5         1 K3R      -0.079400
     17 C33          6.8620    -5.1020   -13.0410 c5         1 K3R       0.157800
     18 C34          9.5700     1.2290   -14.4270 cd         1 K3R      -0.182000
     19 C35         10.0080     2.5370   -14.2080 cc         1 K3R      -0.053000
     20 C37         11.9470    11.3040   -15.0010 ca         1 K3R      -0.089000
     21 C38         12.2520    11.7170   -16.3100 ca         1 K3R      -0.111000
     22 N2          14.7020    12.0500   -20.2540 na         1 K3R       0.134800
     23 N6          13.5350    12.7770   -20.3310 nc         1 K3R      -0.525800
     24 C9          14.0160    10.0400   -14.9190 ca         1 K3R      -0.089000
     25 C10         12.8260    10.4610   -14.2960 ca         1 K3R      -0.109300
     26 N12         11.4300     8.9910   -12.8840 nu         1 K3R      -0.931100
     27 C13         11.5190     7.7020   -13.3890 ca         1 K3R       0.391900
     28 C14         10.3560     6.9770   -13.6610 ca         1 K3R      -0.295000
     29 N16         11.7210     5.1520   -14.3840 nb         1 K3R      -0.263000
     30 N18         12.7410     7.1840   -13.5980 nb         1 K3R      -0.257000
     31 C20          8.1460     5.4180   -14.9890 cd         1 K3R       0.014600
     32 N21          7.2610     4.4160   -15.3870 nd         1 K3R      -0.313600
     33 C22          7.8890     3.2730   -15.1740 cc         1 K3R      -0.029000
     34 C26          6.6980    -0.8070   -15.7260 c3         1 K3R       0.160600
     35 C28          6.7090    -2.9890   -14.3530 c3         1 K3R       0.172800
     36 N29          6.6980    -4.4700   -14.3650 n3         1 K3R      -0.717600
     37 N36          9.1490     3.5260   -14.7100 na         1 K3R       0.142100
     38 H1          15.9630    13.0380   -21.6230 h1         1 K3R       0.056700
     39 H2          16.4940    11.3950   -21.1560 h1         1 K3R       0.056700
     40 H3          15.1130    11.6020   -22.2720 h1         1 K3R       0.056700
     41 H4          15.7390    10.7830   -18.8150 h4         1 K3R       0.153000
     42 H5          12.0330    13.0340   -18.9310 h4         1 K3R       0.039100
     43 H6          15.2450    10.1100   -16.6820 ha         1 K3R       0.110000
     44 H7          13.3950     9.6240   -12.3830 h1         1 K3R       0.058700
     45 H8          12.1640    10.8890   -12.3000 h1         1 K3R       0.058700
     46 H9          13.7670     5.5040   -14.2620 h5         1 K3R       0.042100
     47 H10          6.4510     1.7780   -15.7920 ha         1 K3R       0.147000
     48 H11          5.7280    -2.6490   -16.2610 hc         1 K3R       0.060200
     49 H12          7.4850    -2.7210   -16.3640 hc         1 K3R       0.060200
     50 H14          4.5810    -4.7680   -14.3240 h1         1 K3R       0.034200
     51 H15          4.8230    -7.1590   -14.3810 hc         1 K3R       0.046700
     52 H16          6.1990    -7.0950   -15.4820 hc         1 K3R       0.046700
     53 H17          6.3860    -7.2010   -12.5570 hc         1 K3R       0.046700
     54 H18          7.7150    -7.0120   -13.7010 hc         1 K3R       0.046700
     55 H19          7.8300    -4.8660   -12.5770 h1         1 K3R       0.034200
     56 H20          6.0650    -4.7940   -12.3480 h1         1 K3R       0.034200
     57 H21         10.2050     0.4080   -14.1120 ha         1 K3R       0.146000
     58 H22         10.9300     2.8260   -13.7260 h4         1 K3R       0.184000
     59 H23         11.0230    11.6380   -14.5350 ha         1 K3R       0.109500
     60 H24         11.5530    12.3670   -16.8280 ha         1 K3R       0.110000
     61 H25         14.7070     9.3870   -14.3890 ha         1 K3R       0.109500
     62 H26         10.4790     9.3290   -12.7380 hn         1 K3R       0.495000
     63 H27          9.3780     7.4070   -13.4760 ha         1 K3R       0.128000
     64 H28          7.8910     6.4710   -15.0970 h4         1 K3R       0.222000
     65 H29          6.5790    -0.4230   -16.7480 h1         1 K3R       0.041200
     66 H30          5.8700    -0.4290   -15.1120 h1         1 K3R       0.041200
     67 H31          7.6260    -2.6440   -13.8550 h1         1 K3R       0.036200
     68 H32          5.8630    -2.6140   -13.7600 h1         1 K3R       0.036200
     69 C11         12.4930    10.0130   -12.8760 c3         1 K3R       0.288100
     70 H13          5.2970    -4.9160   -15.9460 h1         1 K3R       0.034200
@<TRIPOS>BOND
     1     1    22 1   
     2     1    38 1   
     3     1    39 1   
     4     1    40 1   
     5     2     3 2   
     6     2    22 1   
     7     2    41 1   
     8     3     4 1   
     9     3     5 1   
    10     4    23 2   
    11     4    42 1   
    12     5     6 ar  
    13     5    21 ar  
    14     6    24 ar  
    15     6    43 1   
    16     7     9 1   
    17     7    28 ar  
    18     7    29 ar  
    19     8    29 ar  
    20     8    30 ar  
    21     8    46 1   
    22     9    31 2   
    23     9    37 1   
    24    10    11 2   
    25    10    33 1   
    26    10    47 1   
    27    11    12 1   
    28    11    18 1   
    29    12    34 1   
    30    13    34 1   
    31    13    35 1   
    32    13    48 1   
    33    13    49 1   
    34    14    15 1   
    35    14    36 1   
    36    14    50 1   
    37    14    70 1   
    38    15    16 1   
    39    15    51 1   
    40    15    52 1   
    41    16    17 1   
    42    16    53 1   
    43    16    54 1   
    44    17    36 1   
    45    17    55 1   
    46    17    56 1   
    47    18    19 2   
    48    18    57 1   
    49    19    37 1   
    50    19    58 1   
    51    20    21 ar  
    52    20    25 ar  
    53    20    59 1   
    54    21    60 1   
    55    22    23 1   
    56    24    25 ar  
    57    24    61 1   
    58    25    69 1   
    59    26    27 1   
    60    26    62 1   
    61    26    69 1   
    62    27    28 ar  
    63    27    30 ar  
    64    28    63 1   
    65    31    32 1   
    66    31    64 1   
    67    32    33 2   
    68    33    37 1   
    69    34    65 1   
    70    34    66 1   
    71    35    36 1   
    72    35    67 1   
    73    35    68 1   
    74    44    69 1   
    75    45    69 1   
@<TRIPOS>SUBSTRUCTURE
     1 K3R         1 TEMP              0 ****  ****    0 ROOT
