@<TRIPOS>MOLECULE
K3S
   22    22     1     0     0
SMALL
No Charge or Current Charge


@<TRIPOS>ATOM
      1 N1          -2.4050     0.2610     0.0770 na         1 K3S       0.124800
      2 N3          -1.1700    -1.4990    -0.1130 nc         1 K3S      -0.333000
      3 C4          -1.1870     0.7280    -0.3590 cd         1 K3S      -0.217000
      4 C5          -3.6150     1.0400     0.3680 c3         1 K3S       0.064900
      5 N            1.9560     0.0990     0.0550 n7         1 K3S      -0.846400
      6 C            4.2470     0.6850     0.7570 c3         1 K3S      -0.091100
      7 C1           3.3760     0.0310    -0.3280 c3         1 K3S       0.157800
      8 C3          -0.4330    -0.4010    -0.4660 cc         1 K3S       0.200300
      9 N2          -2.3730    -1.1020     0.2200 nd         1 K3S      -0.206800
     10 H1          -0.9620     1.7690    -0.5510 h4         1 K3S       0.163000
     11 H2          -3.9060     0.8870     1.4130 h1         1 K3S       0.062367
     12 H3          -3.4190     2.1050     0.1970 h1         1 K3S       0.062367
     13 H4          -4.4290     0.7110    -0.2900 h1         1 K3S       0.062367
     14 H5           1.7020     1.0880     0.1660 hn         1 K3S       0.404000
     15 H7           5.3050     0.6300     0.4760 hc         1 K3S       0.038367
     16 H8           3.9820     1.7410     0.8870 hc         1 K3S       0.038367
     17 H9           4.1220     0.1710     1.7180 hc         1 K3S       0.038367
     18 H10          3.6900    -1.0140    -0.4560 h1         1 K3S       0.026700
     19 H11          3.5430     0.5510    -1.2820 h1         1 K3S       0.026700
     20 H12          1.1040    -0.0310    -1.8940 h1         1 K3S       0.039700
     21 H13          1.2540    -1.5790    -1.0540 h1         1 K3S       0.039700
     22 C2           1.0120    -0.5170    -0.9130 c3         1 K3S       0.144500
@<TRIPOS>BOND
     1     1     3 1   
     2     1     4 1   
     3     1     9 1   
     4     2     8 1   
     5     2     9 2   
     6     3     8 2   
     7     3    10 1   
     8     4    11 1   
     9     4    12 1   
    10     4    13 1   
    11     5     7 1   
    12     5    14 1   
    13     5    22 1   
    14     6     7 1   
    15     6    15 1   
    16     6    16 1   
    17     6    17 1   
    18     7    18 1   
    19     7    19 1   
    20     8    22 1   
    21    20    22 1   
    22    21    22 1   
@<TRIPOS>SUBSTRUCTURE
     1 K3S         1 TEMP              0 ****  ****    0 ROOT
