@<TRIPOS>MOLECULE
K3S
   22    22     1     0     0
SMALL
abcg2


@<TRIPOS>ATOM
      1 N1          -2.4000     0.2860     0.0770 na         1 K3S       0.124800
      2 N3          -0.8770    -1.1440     0.3870 nc         1 K3S      -0.333000
      3 C4          -1.3500     0.7490    -0.6210 cd         1 K3S      -0.217000
      4 C5          -3.6950     0.9000     0.2650 c3         1 K3S       0.064900
      5 N            1.9810     0.0700     0.1370 n7         1 K3S      -0.846400
      6 C            4.3180     0.3640     0.8090 c3         1 K3S      -0.091100
      7 C1           3.3570     0.0660    -0.3280 c3         1 K3S       0.157800
      8 C3          -0.3660    -0.1850    -0.4170 cc         1 K3S       0.200300
      9 N2          -2.0970    -0.8500     0.6780 nd         1 K3S      -0.206800
     10 H1          -1.3780     1.6640    -1.1890 h4         1 K3S       0.163000
     11 H2          -3.6930     1.5360     1.1480 h1         1 K3S       0.062367
     12 H3          -3.9370     1.4990    -0.6080 h1         1 K3S       0.062367
     13 H4          -4.4430     0.1220     0.3820 h1         1 K3S       0.062367
     14 H5           1.7720     0.9810     0.5310 hn         1 K3S       0.404000
     15 H7           5.3490     0.3410     0.4560 hc         1 K3S       0.038367
     16 H8           4.1370     1.3540     1.2320 hc         1 K3S       0.038367
     17 H9           4.2160    -0.3690     1.6090 hc         1 K3S       0.038367
     18 H10          3.5730    -0.9260    -0.7350 h1         1 K3S       0.026700
     19 H11          3.5270     0.7790    -1.1500 h1         1 K3S       0.026700
     20 H12          1.1090     0.5060    -1.7670 h1         1 K3S       0.039700
     21 H13          1.2590    -1.1900    -1.3390 h1         1 K3S       0.039700
     22 C2           1.0330    -0.2010    -0.9280 c3         1 K3S       0.144500
@<TRIPOS>BOND
     1     1     3 1   
     2     1     4 1   
     3     1     9 1   
     4     2     8 1   
     5     2     9 2   
     6     3     8 2   
     7     3    10 1   
     8     4    11 1   
     9     4    12 1   
    10     4    13 1   
    11     5     7 1   
    12     5    14 1   
    13     5    22 1   
    14     6     7 1   
    15     6    15 1   
    16     6    16 1   
    17     6    17 1   
    18     7    18 1   
    19     7    19 1   
    20     8    22 1   
    21    20    22 1   
    22    21    22 1   
@<TRIPOS>SUBSTRUCTURE
     1 K3S         1 TEMP              0 ****  ****    0 ROOT
