@<TRIPOS>MOLECULE
K3U
   42    43     1     0     0
SMALL
No Charge or Current Charge


@<TRIPOS>ATOM
      1 O            2.9120    -0.2640    -2.0950 o          1 K3U      -0.501100
      2 C            3.0690    -0.2780    -0.8780 c          1 K3U       0.595700
      3 C13          4.4570    -0.1370    -0.2810 ca         1 K3U      -0.175600
      4 C14          4.6750    -0.1820     1.1180 ca         1 K3U      -0.062000
      5 C15          5.9720    -0.0480     1.6430 ca         1 K3U      -0.124000
      6 C16          7.0690     0.1320     0.7860 ca         1 K3U      -0.079000
      7 C17          6.8670     0.1780    -0.6010 ca         1 K3U      -0.124000
      8 C18          5.5730     0.0450    -1.1330 ca         1 K3U      -0.062000
      9 C1           1.8670    -0.4400     0.0730 c3         1 K3U      -0.067400
     10 S            0.2160    -0.5340    -0.7860 ss         1 K3U      -0.257600
     11 C2          -0.8920    -0.6860     0.6510 c          1 K3U       0.584700
     12 O1          -0.4820    -0.7480     1.8030 o          1 K3U      -0.522100
     13 C3          -2.3920    -0.6530     0.2950 c3         1 K3U      -0.140700
     14 C11         -3.1150    -1.9330     0.8320 c3         1 K3U      -0.146400
     15 C12         -4.5740    -2.1610     0.3650 c3         1 K3U       0.302000
     16 F1          -4.6910    -2.0200    -0.9750 f          1 K3U      -0.116333
     17 F           -4.9770    -3.4120     0.6830 f          1 K3U      -0.116333
     18 F2          -5.4280    -1.2970     0.9570 f          1 K3U      -0.116333
     19 C4          -3.0230     0.6840     0.7710 c3         1 K3U      -0.024100
     20 C5          -2.2560     1.8970     0.2550 ca         1 K3U      -0.097300
     21 C6          -1.3900     2.6090     1.1070 ca         1 K3U      -0.101000
     22 C7          -0.6650     3.7110     0.6210 ca         1 K3U      -0.107500
     23 C8          -0.8030     4.1090    -0.7190 ca         1 K3U      -0.103000
     24 C9          -1.6660     3.4030    -1.5740 ca         1 K3U      -0.107500
     25 C10         -2.3910     2.3000    -1.0880 ca         1 K3U      -0.101000
     26 H1           3.8520    -0.3210     1.8150 ha         1 K3U       0.125500
     27 H2           6.1270    -0.0840     2.7200 ha         1 K3U       0.119500
     28 H3           8.0710     0.2360     1.1960 ha         1 K3U       0.117000
     29 H4           7.7160     0.3170    -1.2680 ha         1 K3U       0.119500
     30 H5           5.4430     0.0840    -2.2130 ha         1 K3U       0.125500
     31 H6           2.0240    -1.3530     0.6590 h1         1 K3U       0.096700
     32 H7           1.8650     0.4180     0.7560 h1         1 K3U       0.096700
     33 H8          -2.4530    -0.6640    -0.8000 hc         1 K3U       0.088700
     34 H9          -2.5300    -2.8090     0.5230 hc         1 K3U       0.089700
     35 H10         -3.0950    -1.9310     1.9300 hc         1 K3U       0.089700
     36 H11         -4.0600     0.7500     0.4230 hc         1 K3U       0.065200
     37 H12         -3.0670     0.6970     1.8670 hc         1 K3U       0.065200
     38 H13         -1.2710     2.3060     2.1450 ha         1 K3U       0.114500
     39 H14          0.0040     4.2560     1.2840 ha         1 K3U       0.113500
     40 H15         -0.2420     4.9610    -1.0950 ha         1 K3U       0.114000
     41 H16         -1.7730     3.7080    -2.6120 ha         1 K3U       0.113500
     42 H17         -3.0530     1.7560    -1.7580 ha         1 K3U       0.114500
@<TRIPOS>BOND
     1     1     2 2   
     2     2     3 1   
     3     2     9 1   
     4     3     4 ar  
     5     3     8 ar  
     6     4     5 ar  
     7     4    26 1   
     8     5     6 ar  
     9     5    27 1   
    10     6     7 ar  
    11     6    28 1   
    12     7     8 ar  
    13     7    29 1   
    14     8    30 1   
    15     9    10 1   
    16     9    31 1   
    17     9    32 1   
    18    10    11 1   
    19    11    12 2   
    20    11    13 1   
    21    13    14 1   
    22    13    19 1   
    23    13    33 1   
    24    14    15 1   
    25    14    34 1   
    26    14    35 1   
    27    15    16 1   
    28    15    17 1   
    29    15    18 1   
    30    19    20 1   
    31    19    36 1   
    32    19    37 1   
    33    20    21 ar  
    34    20    25 ar  
    35    21    22 ar  
    36    21    38 1   
    37    22    23 ar  
    38    22    39 1   
    39    23    24 ar  
    40    23    40 1   
    41    24    25 ar  
    42    24    41 1   
    43    25    42 1   
@<TRIPOS>SUBSTRUCTURE
     1 K3U         1 TEMP              0 ****  ****    0 ROOT
