@<TRIPOS>MOLECULE
K3U
   42    43     1     0     0
SMALL
bcc


@<TRIPOS>ATOM
      1 O            2.7360    -0.2470    -1.9460 o          1 K3U      -0.501100
      2 C            2.9620    -0.2370    -0.7550 c          1 K3U       0.595700
      3 C13          4.3450    -0.1560    -0.2230 ca         1 K3U      -0.175600
      4 C14          4.6110    -0.1420     1.1470 ca         1 K3U      -0.080000
      5 C15          5.9170    -0.0680     1.6060 ca         1 K3U      -0.142000
      6 C16          6.9690    -0.0060     0.7020 ca         1 K3U      -0.097000
      7 C17          6.7120    -0.0180    -0.6640 ca         1 K3U      -0.142000
      8 C18          5.4090    -0.0920    -1.1250 ca         1 K3U      -0.080000
      9 C1           1.8280    -0.3090     0.2370 c3         1 K3U      -0.115300
     10 S            0.2690    -0.4250    -0.6690 ss         1 K3U      -0.209700
     11 C2          -0.8540    -0.5630     0.6720 c          1 K3U       0.584700
     12 O1          -0.5220    -0.6080     1.8300 o          1 K3U      -0.522100
     13 C3          -2.3070    -0.6080     0.2280 c3         1 K3U      -0.140700
     14 C11         -2.9100    -1.9050     0.7820 c3         1 K3U      -0.146400
     15 C12         -4.3000    -2.2240     0.2970 c3         1 K3U       0.665900
     16 F1          -4.4060    -2.1580    -1.0390 f          1 K3U      -0.237633
     17 F           -4.6610    -3.4650     0.6540 f          1 K3U      -0.237633
     18 F2          -5.2370    -1.4010     0.7940 f          1 K3U      -0.237633
     19 C4          -2.9940     0.6820     0.7160 c3         1 K3U      -0.024100
     20 C5          -2.2690     1.9120     0.2410 ca         1 K3U      -0.097300
     21 C6          -1.4110     2.6120     1.0860 ca         1 K3U      -0.119000
     22 C7          -0.7040     3.7150     0.6260 ca         1 K3U      -0.125500
     23 C8          -0.8480     4.1360    -0.6890 ca         1 K3U      -0.121000
     24 C9          -1.7070     3.4500    -1.5380 ca         1 K3U      -0.125500
     25 C10         -2.4100     2.3480    -1.0750 ca         1 K3U      -0.119000
     26 H1           3.8100    -0.1890     1.8720 ha         1 K3U       0.143500
     27 H2           6.1110    -0.0580     2.6700 ha         1 K3U       0.137500
     28 H3           7.9880     0.0530     1.0610 ha         1 K3U       0.135000
     29 H4           7.5300     0.0300    -1.3710 ha         1 K3U       0.137500
     30 H5           5.2170    -0.1020    -2.1900 ha         1 K3U       0.143500
     31 H6           1.9460    -1.1730     0.8940 h1         1 K3U       0.096700
     32 H7           1.8200     0.5830     0.8680 h1         1 K3U       0.096700
     33 H8          -2.3410    -0.6350    -0.8650 hc         1 K3U       0.088700
     34 H9          -2.2760    -2.7450     0.4870 hc         1 K3U       0.089700
     35 H10         -2.9250    -1.8850     1.8730 hc         1 K3U       0.089700
     36 H11         -4.0200     0.7050     0.3490 hc         1 K3U       0.065200
     37 H12         -3.0460     0.6700     1.8070 hc         1 K3U       0.065200
     38 H13         -1.2930     2.2910     2.1140 ha         1 K3U       0.132500
     39 H14         -0.0410     4.2460     1.2970 ha         1 K3U       0.131500
     40 H15         -0.3000     4.9970    -1.0490 ha         1 K3U       0.132000
     41 H16         -1.8310     3.7740    -2.5640 ha         1 K3U       0.131500
     42 H17         -3.0800     1.8210    -1.7460 ha         1 K3U       0.132500
@<TRIPOS>BOND
     1     1     2 2   
     2     2     3 1   
     3     2     9 1   
     4     3     4 ar  
     5     3     8 ar  
     6     4     5 ar  
     7     4    26 1   
     8     5     6 ar  
     9     5    27 1   
    10     6     7 ar  
    11     6    28 1   
    12     7     8 ar  
    13     7    29 1   
    14     8    30 1   
    15     9    10 1   
    16     9    31 1   
    17     9    32 1   
    18    10    11 1   
    19    11    12 2   
    20    11    13 1   
    21    13    14 1   
    22    13    19 1   
    23    13    33 1   
    24    14    15 1   
    25    14    34 1   
    26    14    35 1   
    27    15    16 1   
    28    15    17 1   
    29    15    18 1   
    30    19    20 1   
    31    19    36 1   
    32    19    37 1   
    33    20    21 ar  
    34    20    25 ar  
    35    21    22 ar  
    36    21    38 1   
    37    22    23 ar  
    38    22    39 1   
    39    23    24 ar  
    40    23    40 1   
    41    24    25 ar  
    42    24    41 1   
    43    25    42 1   
@<TRIPOS>SUBSTRUCTURE
     1 K3U         1 TEMP              0 ****  ****    0 ROOT
