@<TRIPOS>MOLECULE
K3V
   25    26     1     0     0
SMALL
No Charge or Current Charge


@<TRIPOS>ATOM
      1 N1           3.2250     0.1310     0.1270 ns         1 K3V      -0.253900
      2 C4           0.9740    -1.4130    -0.0800 ca         1 K3V      -0.160900
      3 C5           2.3250    -1.9910    -0.1070 cc         1 K3V       0.369800
      4 C6           2.0380     0.8440     0.1690 c          1 K3V       0.559600
      5 C7           0.7940    -0.0140     0.0580 ca         1 K3V      -0.123600
      6 C8          -0.5210     0.5210     0.0740 ca         1 K3V       0.127100
      7 N            3.4160    -1.2310    -0.0050 nd         1 K3V      -0.417300
      8 C           -4.1080    -0.6180    -0.0170 c3         1 K3V       0.144900
      9 C1          -1.6430    -0.3450    -0.0190 ca         1 K3V       0.119100
     10 C2          -1.4400    -1.7350    -0.1570 ca         1 K3V      -0.168000
     11 C3          -0.1410    -2.2600    -0.1910 ca         1 K3V      -0.066000
     12 C9          -1.3260     2.6440    -0.8350 c3         1 K3V       0.156900
     13 O1           2.0480     2.0610     0.2860 o          1 K3V      -0.525000
     14 O2          -0.7030     1.8820     0.2140 os         1 K3V      -0.329100
     15 H1           4.0540     0.7140     0.2040 hn         1 K3V       0.350500
     16 H2           2.5560    -3.0420    -0.2070 h4         1 K3V       0.041800
     17 H3          -4.1560    -1.1530    -0.9740 h1         1 K3V       0.044700
     18 H4          -4.1350    -1.3500     0.8000 h1         1 K3V       0.044700
     19 H5          -5.0010     0.0130     0.0640 h1         1 K3V       0.044700
     20 H6          -2.2750    -2.4260    -0.2330 ha         1 K3V       0.123000
     21 H7          -0.0000    -3.3350    -0.2970 ha         1 K3V       0.122000
     22 H8          -1.3200     3.7120    -0.5820 h1         1 K3V       0.039033
     23 H9          -0.7830     2.5150    -1.7790 h1         1 K3V       0.039033
     24 H10         -2.3680     2.3430    -0.9920 h1         1 K3V       0.039033
     25 O           -2.9200     0.1900     0.0590 os         1 K3V      -0.320100
@<TRIPOS>BOND
     1     1     4 1   
     2     1     7 1   
     3     1    15 1   
     4     2     3 1   
     5     2     5 ar  
     6     2    11 ar  
     7     3     7 2   
     8     3    16 1   
     9     4     5 1   
    10     4    13 2   
    11     5     6 ar  
    12     6     9 ar  
    13     6    14 1   
    14     8    17 1   
    15     8    18 1   
    16     8    19 1   
    17     8    25 1   
    18     9    10 ar  
    19     9    25 1   
    20    10    11 ar  
    21    10    20 1   
    22    11    21 1   
    23    12    14 1   
    24    12    22 1   
    25    12    23 1   
    26    12    24 1   
@<TRIPOS>SUBSTRUCTURE
     1 K3V         1 TEMP              0 ****  ****    0 ROOT
