@<TRIPOS>MOLECULE
K3V
   25    26     1     0     0
SMALL
bcc


@<TRIPOS>ATOM
      1 N1           3.0610     0.2090     0.0630 ns         1 K3V      -0.320900
      2 C4           0.9050    -1.3740    -0.1080 ca         1 K3V      -0.160900
      3 C5           2.2520    -1.8590    -0.1740 cc         1 K3V       0.369800
      4 C6           1.8700     0.8800     0.1390 c          1 K3V       0.702100
      5 C7           0.6880     0.0090     0.0480 ca         1 K3V      -0.123600
      6 C8          -0.6180     0.4990     0.1360 ca         1 K3V       0.127100
      7 N            3.2830    -1.1020    -0.0900 nd         1 K3V      -0.417300
      8 C           -4.0530    -0.6710     0.0370 c3         1 K3V       0.121700
      9 C1          -1.6990    -0.3900     0.0470 ca         1 K3V       0.119100
     10 C2          -1.4680    -1.7590    -0.1150 ca         1 K3V      -0.186000
     11 C3          -0.1800    -2.2420    -0.1920 ca         1 K3V      -0.084000
     12 C9          -1.0740     2.5670    -0.8560 c3         1 K3V       0.133700
     13 O1           1.8660     2.0940     0.2690 o          1 K3V      -0.600500
     14 O2          -0.8840     1.8080     0.3330 os         1 K3V      -0.305900
     15 H1           3.9000     0.7670     0.1300 hn         1 K3V       0.350500
     16 H2           2.4390    -2.9180    -0.2980 h4         1 K3V       0.041800
     17 H3          -4.0880    -1.2000    -0.9180 h1         1 K3V       0.044700
     18 H4          -4.0960    -1.3990     0.8510 h1         1 K3V       0.044700
     19 H5          -4.9170    -0.0160     0.1070 h1         1 K3V       0.044700
     20 H6          -2.2920    -2.4550    -0.1810 ha         1 K3V       0.141000
     21 H7          -0.0130    -3.3040    -0.3120 ha         1 K3V       0.140000
     22 H8          -1.2170     3.6020    -0.5510 h1         1 K3V       0.039033
     23 H9          -0.2040     2.5100    -1.5120 h1         1 K3V       0.039033
     24 H10         -1.9580     2.2380    -1.4060 h1         1 K3V       0.039033
     25 O           -2.9130     0.1640     0.1350 os         1 K3V      -0.296900
@<TRIPOS>BOND
     1     1     4 1   
     2     1     7 1   
     3     1    15 1   
     4     2     3 1   
     5     2     5 ar  
     6     2    11 ar  
     7     3     7 2   
     8     3    16 1   
     9     4     5 1   
    10     4    13 2   
    11     5     6 ar  
    12     6     9 ar  
    13     6    14 1   
    14     8    17 1   
    15     8    18 1   
    16     8    19 1   
    17     8    25 1   
    18     9    10 ar  
    19     9    25 1   
    20    10    11 ar  
    21    10    20 1   
    22    11    21 1   
    23    12    14 1   
    24    12    22 1   
    25    12    23 1   
    26    12    24 1   
@<TRIPOS>SUBSTRUCTURE
     1 K3V         1 TEMP              0 ****  ****    0 ROOT
