@<TRIPOS>MOLECULE
K3W
   64    67     1     0     0
SMALL
bcc


@<TRIPOS>ATOM
      1 C1           9.9420    -2.5160     0.5010 c3         1 K3W       0.125700
      2 C10         -0.0340     1.2020     0.0820 ca         1 K3W      -0.041000
      3 C11         -0.1370     2.6040    -0.0410 ca         1 K3W       0.181100
      4 C12          0.9760     4.6860    -0.2270 c3         1 K3W       0.122700
      5 C13         -1.3990     3.1820    -0.0860 ca         1 K3W      -0.231000
      6 C14         -2.5310     2.3840    -0.0170 ca         1 K3W      -0.057000
      7 C15         -2.4510     0.9960     0.0900 ca         1 K3W      -0.159900
      8 C16         -1.1810     0.4220     0.1410 ca         1 K3W      -0.024000
      9 C17         -3.6580     0.1570     0.1110 ce         1 K3W       0.394900
     10 C19         -3.6020    -3.2250    -1.8990 c3         1 K3W      -0.101600
     11 C2           8.0370    -1.1440     0.1540 ca         1 K3W       0.167100
     12 C20         -3.4630    -4.0290     0.4910 c3         1 K3W      -0.101600
     13 C21         -5.8030    -1.5970     0.4700 c          1 K3W       0.701500
     14 C22         -5.8640    -0.2150     1.0820 c6         1 K3W      -0.142700
     15 C23         -7.2850     0.2940     1.2680 c6         1 K3W      -0.029200
     16 C24         -7.8640     0.8370    -0.0010 c2         1 K3W      -0.158200
     17 C25         -7.1390     1.1360    -1.0740 c2         1 K3W      -0.175200
     18 C26         -5.6520     0.9790    -1.1430 c6         1 K3W      -0.038200
     19 C27         -5.0290     0.7480     0.2430 c6         1 K3W      -0.127000
     20 C28          6.6470    -1.0340     0.2410 ca         1 K3W      -0.191000
     21 C3           8.8060    -0.0900    -0.3280 ca         1 K3W      -0.245000
     22 C4           8.1630     1.0780    -0.7220 ca         1 K3W      -0.063000
     23 C5           6.7920     1.2070    -0.6440 ca         1 K3W      -0.223000
     24 C6           6.0240     0.1420    -0.1580 ca         1 K3W       0.109600
     25 C7           3.6580    -0.5000     0.2740 c          1 K3W       0.720300
     26 C8           2.3470     0.1050     0.1920 cg         1 K3W      -0.189200
     27 C9           1.2500     0.6040     0.1410 ch         1 K3W      -0.011000
     28 N1           4.6430     0.3500    -0.1070 ns         1 K3W      -0.464100
     29 N2          -3.5010    -1.1020    -0.0270 n2         1 K3W      -0.443300
     30 N3          -4.5900    -1.9160    -0.0690 n          1 K3W      -0.245800
     31 O1           8.5430    -2.3220     0.5670 os         1 K3W      -0.313900
     32 O2           3.8120    -1.6470     0.6520 o          1 K3W      -0.557100
     33 O3           1.0130     3.2730    -0.1010 os         1 K3W      -0.306900
     34 O4          -6.7310    -2.3860     0.4930 o          1 K3W      -0.605500
     35 H1          10.3150    -2.4480    -0.5250 h1         1 K3W       0.040700
     36 H2          10.4840    -1.7980     1.1210 h1         1 K3W       0.040700
     37 H3          10.1330    -3.5180     0.8770 h1         1 K3W       0.040700
     38 H4           0.4700     4.9950    -1.1440 h1         1 K3W       0.046700
     39 H5           0.4850     5.1540     0.6290 h1         1 K3W       0.046700
     40 H6           2.0110     5.0150    -0.2650 h1         1 K3W       0.046700
     41 H7          -1.5220     4.2520    -0.1760 ha         1 K3W       0.142000
     42 H8          -3.4930     2.8770    -0.0590 ha         1 K3W       0.135000
     43 H9          -1.0800    -0.6510     0.2310 ha         1 K3W       0.165000
     44 H10         -5.2480    -3.7670    -0.6570 h1         1 K3W       0.078700
     45 H11         -2.6050    -2.7900    -1.8290 hc         1 K3W       0.044033
     46 H12         -3.5000    -4.2370    -2.2890 hc         1 K3W       0.044033
     47 H13         -4.1830    -2.6450    -2.6170 hc         1 K3W       0.044033
     48 H14         -3.9960    -4.1150     1.4380 hc         1 K3W       0.044033
     49 H15         -3.2500    -5.0370     0.1330 hc         1 K3W       0.044033
     50 H16         -2.5110    -3.5300     0.6760 hc         1 K3W       0.044033
     51 H17         -5.3890    -0.3100     2.0680 hc         1 K3W       0.078700
     52 H18         -7.9200    -0.5010     1.6620 hc         1 K3W       0.063700
     53 H19         -7.2850     1.0750     2.0340 hc         1 K3W       0.063700
     54 H20         -8.9370     0.9950    -0.0220 ha         1 K3W       0.128000
     55 H21         -7.6290     1.5150    -1.9640 ha         1 K3W       0.126000
     56 H22         -5.4050     0.1580    -1.8280 hc         1 K3W       0.056700
     57 H23         -5.2080     1.8690    -1.5960 hc         1 K3W       0.056700
     58 H24         -4.9910     1.7010     0.7740 hc         1 K3W       0.071700
     59 H25          6.0840    -1.8720     0.6190 ha         1 K3W       0.179000
     60 H26          9.8830    -0.1560    -0.4050 ha         1 K3W       0.137000
     61 H27          8.7510     1.9040    -1.0990 ha         1 K3W       0.128000
     62 H28          6.3110     2.1250    -0.9600 ha         1 K3W       0.129000
     63 H29          4.3380     1.2610    -0.4160 hn         1 K3W       0.327500
     64 C18         -4.2860    -3.2710    -0.5410 c3         1 K3W       0.132700
@<TRIPOS>BOND
     1     1    31 1   
     2     1    35 1   
     3     1    36 1   
     4     1    37 1   
     5     2     3 ar  
     6     2     8 ar  
     7     2    27 1   
     8     3     5 ar  
     9     3    33 1   
    10     4    33 1   
    11     4    38 1   
    12     4    39 1   
    13     4    40 1   
    14     5     6 ar  
    15     5    41 1   
    16     6     7 ar  
    17     6    42 1   
    18     7     8 ar  
    19     7     9 1   
    20     8    43 1   
    21     9    19 1   
    22     9    29 2   
    23    10    45 1   
    24    10    46 1   
    25    10    47 1   
    26    10    64 1   
    27    11    20 ar  
    28    11    21 ar  
    29    11    31 1   
    30    12    48 1   
    31    12    49 1   
    32    12    50 1   
    33    12    64 1   
    34    13    14 1   
    35    13    30 1   
    36    13    34 2   
    37    14    15 1   
    38    14    19 1   
    39    14    51 1   
    40    15    16 1   
    41    15    52 1   
    42    15    53 1   
    43    16    17 2   
    44    16    54 1   
    45    17    18 1   
    46    17    55 1   
    47    18    19 1   
    48    18    56 1   
    49    18    57 1   
    50    19    58 1   
    51    20    24 ar  
    52    20    59 1   
    53    21    22 ar  
    54    21    60 1   
    55    22    23 ar  
    56    22    61 1   
    57    23    24 ar  
    58    23    62 1   
    59    24    28 1   
    60    25    26 1   
    61    25    28 1   
    62    25    32 2   
    63    26    27 3   
    64    28    63 1   
    65    29    30 1   
    66    30    64 1   
    67    44    64 1   
@<TRIPOS>SUBSTRUCTURE
     1 K3W         1 TEMP              0 ****  ****    0 ROOT
