@<TRIPOS>MOLECULE
K3W
   64    67     1     0     0
SMALL
No Charge or Current Charge


@<TRIPOS>ATOM
      1 C1          10.2850    -2.4390     0.2870 c3         1 K3W       0.148900
      2 C10          0.0280     1.1380    -0.0190 ca         1 K3W      -0.041000
      3 C11         -0.0610     2.5300    -0.2320 ca         1 K3W       0.181100
      4 C12          1.1030     4.6860    -0.5900 c3         1 K3W       0.145900
      5 C13         -1.3330     3.1340    -0.3020 ca         1 K3W      -0.213000
      6 C14         -2.4990     2.3650    -0.1590 ca         1 K3W      -0.039000
      7 C15         -2.4250     0.9710     0.0680 ca         1 K3W      -0.159900
      8 C16         -1.1440     0.3720     0.1250 ca         1 K3W      -0.006000
      9 C17         -3.6620     0.1180     0.1990 ce         1 K3W       0.394900
     10 C19         -3.7490    -3.3360    -1.8900 c3         1 K3W      -0.101600
     11 C2           8.2440    -1.0590     0.1270 ca         1 K3W       0.167100
     12 C20         -4.0060    -4.3850     0.4120 c3         1 K3W      -0.101600
     13 C21         -5.9020    -1.6220     0.6700 c          1 K3W       0.559000
     14 C22         -5.9680    -0.1750     1.2200 c6         1 K3W      -0.142700
     15 C23         -7.4000     0.4250     1.3500 c6         1 K3W      -0.029200
     16 C24         -7.9450     0.9660     0.0400 c2         1 K3W      -0.208200
     17 C25         -7.1720     1.2410    -1.0220 c2         1 K3W      -0.225200
     18 C26         -5.6660     1.0320    -1.0420 c6         1 K3W      -0.038200
     19 C27         -5.0510     0.7610     0.3680 c6         1 K3W      -0.127000
     20 C28          6.8410    -1.0180     0.1530 ca         1 K3W      -0.173000
     21 C3           8.9760     0.1310    -0.0680 ca         1 K3W      -0.227000
     22 C4           8.2990     1.3480    -0.2350 ca         1 K3W      -0.045000
     23 C5           6.8950     1.3800    -0.2070 ca         1 K3W      -0.205000
     24 C6           6.1520     0.2030    -0.0140 ca         1 K3W       0.017000
     25 C7           3.7250    -0.6180     0.1670 c          1 K3W       0.653300
     26 C8           2.3880    -0.0570     0.1120 cg         1 K3W      -0.189200
     27 C9           1.2960     0.4850     0.0540 ch         1 K3W      -0.011000
     28 N1           4.7350     0.3160     0.0020 ns         1 K3W      -0.138000
     29 N2          -3.5600    -1.1780     0.1370 n2         1 K3W      -0.443300
     30 N3          -4.6780    -2.0050     0.0380 n          1 K3W      -0.178800
     31 O1           8.8540    -2.2850     0.2970 os         1 K3W      -0.337100
     32 O2           3.8920    -1.8190     0.3460 o          1 K3W      -0.557100
     33 O3           1.1060     3.2640    -0.3700 os         1 K3W      -0.330100
     34 O4          -6.8190    -2.4160     0.8520 o          1 K3W      -0.530000
     35 H1          10.7050    -2.1140    -0.6740 h1         1 K3W       0.040700
     36 H2          10.7460    -1.8500     1.0900 h1         1 K3W       0.040700
     37 H3          10.5550    -3.4910     0.4380 h1         1 K3W       0.040700
     38 H4           0.5790     4.9360    -1.5220 h1         1 K3W       0.046700
     39 H5           0.6140     5.2090     0.2420 h1         1 K3W       0.046700
     40 H6           2.1310     5.0600    -0.6680 h1         1 K3W       0.046700
     41 H7          -1.4400     4.2010    -0.4720 ha         1 K3W       0.124000
     42 H8          -3.4560     2.8740    -0.2320 ha         1 K3W       0.117000
     43 H9          -1.0490    -0.7000     0.2880 ha         1 K3W       0.147000
     44 H10         -5.5880    -3.6800    -0.8610 h1         1 K3W       0.078700
     45 H11         -2.7010    -3.0790    -1.6940 hc         1 K3W       0.044033
     46 H12         -3.7750    -4.3190    -2.3740 hc         1 K3W       0.044033
     47 H13         -4.1590    -2.6000    -2.5930 hc         1 K3W       0.044033
     48 H14         -4.6280    -4.4340     1.3140 hc         1 K3W       0.044033
     49 H15         -3.9820    -5.3850    -0.0380 hc         1 K3W       0.044033
     50 H16         -2.9860    -4.1160     0.7120 hc         1 K3W       0.044033
     51 H17         -5.5160    -0.2400     2.2190 hc         1 K3W       0.078700
     52 H18         -8.0910    -0.3220     1.7640 hc         1 K3W       0.063700
     53 H19         -7.3820     1.2460     2.0800 hc         1 K3W       0.063700
     54 H20         -9.0240     1.1330    -0.0010 ha         1 K3W       0.178000
     55 H21         -7.6150     1.6320    -1.9410 ha         1 K3W       0.176000
     56 H22         -5.4490     0.1910    -1.7150 hc         1 K3W       0.056700
     57 H23         -5.1840     1.9080    -1.4960 hc         1 K3W       0.056700
     58 H24         -4.9610     1.7130     0.9070 hc         1 K3W       0.071700
     59 H25          6.3110    -1.9510     0.3050 ha         1 K3W       0.161000
     60 H26         10.0620     0.1310    -0.0930 ha         1 K3W       0.119000
     61 H27          8.8610     2.2680    -0.3850 ha         1 K3W       0.110000
     62 H28          6.3840     2.3320    -0.3380 ha         1 K3W       0.111000
     63 H29          4.3980     1.2600    -0.1340 hn         1 K3W       0.161000
     64 C18         -4.5770    -3.3520    -0.5840 c3         1 K3W       0.132700
@<TRIPOS>BOND
     1     1    31 1   
     2     1    35 1   
     3     1    36 1   
     4     1    37 1   
     5     2     3 ar  
     6     2     8 ar  
     7     2    27 1   
     8     3     5 ar  
     9     3    33 1   
    10     4    33 1   
    11     4    38 1   
    12     4    39 1   
    13     4    40 1   
    14     5     6 ar  
    15     5    41 1   
    16     6     7 ar  
    17     6    42 1   
    18     7     8 ar  
    19     7     9 1   
    20     8    43 1   
    21     9    19 1   
    22     9    29 2   
    23    10    45 1   
    24    10    46 1   
    25    10    47 1   
    26    10    64 1   
    27    11    20 ar  
    28    11    21 ar  
    29    11    31 1   
    30    12    48 1   
    31    12    49 1   
    32    12    50 1   
    33    12    64 1   
    34    13    14 1   
    35    13    30 1   
    36    13    34 2   
    37    14    15 1   
    38    14    19 1   
    39    14    51 1   
    40    15    16 1   
    41    15    52 1   
    42    15    53 1   
    43    16    17 2   
    44    16    54 1   
    45    17    18 1   
    46    17    55 1   
    47    18    19 1   
    48    18    56 1   
    49    18    57 1   
    50    19    58 1   
    51    20    24 ar  
    52    20    59 1   
    53    21    22 ar  
    54    21    60 1   
    55    22    23 ar  
    56    22    61 1   
    57    23    24 ar  
    58    23    62 1   
    59    24    28 1   
    60    25    26 1   
    61    25    28 1   
    62    25    32 2   
    63    26    27 3   
    64    28    63 1   
    65    29    30 1   
    66    30    64 1   
    67    44    64 1   
@<TRIPOS>SUBSTRUCTURE
     1 K3W         1 TEMP              0 ****  ****    0 ROOT
