@<TRIPOS>MOLECULE
K3X
   64    69     1     0     0
SMALL
No Charge or Current Charge


@<TRIPOS>ATOM
      1 C36         -9.4160    13.0250    44.8500 ca         1 K3X      -0.141000
      2 C35         -8.0870    12.9110    45.3190 ca         1 K3X      -0.093000
      3 C37         -9.6970    12.8960    43.4750 ca         1 K3X      -0.061000
      4 C28         -4.6940    14.6970    41.9950 ca         1 K3X      -0.068000
      5 C32         -3.0170    13.2560    40.9740 ca         1 K3X      -0.068000
      6 C34         -7.0300    12.6630    44.4170 ca         1 K3X      -0.121000
      7 C29         -3.9640    15.8290    41.5930 ca         1 K3X      -0.153500
      8 C31         -2.2890    14.3900    40.5720 ca         1 K3X      -0.153500
      9 C22         -8.6200    12.4930    41.1860 cc         1 K3X      -0.220200
     10 C23         -8.6250    12.6500    42.6080 ca         1 K3X      -0.100800
     11 C27         -4.2270    13.4020    41.6830 ca         1 K3X      -0.127300
     12 C24         -7.3340    12.5300    43.0490 ca         1 K3X      -0.038200
     13 C30         -2.7650    15.6720    40.8820 ca         1 K3X       0.177000
     14 C3          -6.8110    12.0880    39.4430 cd         1 K3X       0.114600
     15 C21         -7.2940    12.2940    40.8060 cd         1 K3X       0.008900
     16 C2          -7.5920    12.1960    38.2880 cc         1 K3X      -0.147300
     17 C5          -5.4440    11.6310    37.8280 cc         1 K3X      -0.083000
     18 C6          -4.3480    11.2920    36.9900 cc         1 K3X      -0.022000
     19 C18         -5.9010    11.3850    35.1420 cd         1 K3X      -0.125000
     20 C19         -6.9860    11.7110    35.9580 cc         1 K3X      -0.113000
     21 C7          -4.5380    11.2030    35.6240 cd         1 K3X      -0.140600
     22 C8          -3.3570    10.8380    34.7700 c          1 K3X       0.622700
     23 C14         -4.4750    12.2400    31.3820 c6         1 K3X      -0.091400
     24 C13         -3.4330    11.5910    30.4480 c6         1 K3X      -0.078400
     25 C15         -3.9450    12.3250    32.8320 c6         1 K3X       0.102000
     26 C10         -2.5450    10.2990    32.4660 c6         1 K3X       0.092000
     27 C11         -3.0360    10.2010    30.9900 c6         1 K3X       0.146500
     28 C1          -9.0300    12.6130    38.0510 c3         1 K3X      -0.025900
     29 N4          -5.4930    11.7590    39.1350 nd         1 K3X      -0.273600
     30 N25         -6.4770    12.2900    41.9750 na         1 K3X      -0.068700
     31 N20         -6.6700    11.8960    37.3090 na         1 K3X       0.132100
     32 N9          -3.5010    11.0030    33.3730 n          1 K3X      -0.407800
     33 N16         -2.0190     9.5800    30.1130 n8         1 K3X      -0.998200
     34 O17         -2.3180    10.3920    35.2410 o          1 K3X      -0.586100
     35 F33         -2.0650    16.7610    40.4950 f          1 K3X      -0.179000
     36 H1         -10.2240    13.2180    45.5520 ha         1 K3X       0.109000
     37 H2          -7.8770    13.0160    46.3810 ha         1 K3X       0.108000
     38 H3         -10.7140    12.9880    43.0990 ha         1 K3X       0.112000
     39 H5          -2.6430    12.2640    40.7270 ha         1 K3X       0.119000
     40 H6          -6.0120    12.5820    44.7870 ha         1 K3X       0.113000
     41 H7          -4.3250    16.8260    41.8320 ha         1 K3X       0.132000
     42 H8          -1.3590    14.2760    40.0210 ha         1 K3X       0.132000
     43 H9          -9.5000    12.4930    40.5580 ha         1 K3X       0.204000
     44 H10         -3.3790    11.1190    37.4490 ha         1 K3X       0.157000
     45 H11         -6.1130    11.2280    34.0900 ha         1 K3X       0.136000
     46 H12         -8.0060    11.8250    35.6220 h4         1 K3X       0.148000
     47 H13         -4.7270    13.2460    31.0200 hc         1 K3X       0.047700
     48 H14         -5.4060    11.6570    31.3660 hc         1 K3X       0.047700
     49 H15         -2.5460    12.2370    30.3750 hc         1 K3X       0.051200
     50 H16         -3.8470    11.5020    29.4340 hc         1 K3X       0.051200
     51 H17         -3.0780    13.0020    32.8440 h1         1 K3X       0.052200
     52 H18         -4.7010    12.7970    33.4690 h1         1 K3X       0.052200
     53 H19         -2.3660     9.2830    32.8460 h1         1 K3X       0.068700
     54 H20         -1.5820    10.8290    32.4920 h1         1 K3X       0.068700
     55 H21         -3.9240     9.5520    30.9620 h1         1 K3X       0.023700
     56 H22         -9.7250    11.8150    38.3380 hc         1 K3X       0.054033
     57 H23         -9.2720    13.5170    38.6220 hc         1 K3X       0.054033
     58 H24         -9.2330    12.8660    37.0060 hc         1 K3X       0.054033
     59 H27         -1.8980     8.5970    30.3860 hn         1 K3X       0.399000
     60 H28         -2.4000     9.5140    29.1610 hn         1 K3X       0.399000
     61 C26         -5.0090    12.1590    42.1090 c3         1 K3X       0.120900
     62 H4          -5.6210    14.8310    42.5490 ha         1 K3X       0.119000
     63 H25         -4.6840    11.2920    41.5230 h1         1 K3X       0.077700
     64 H26         -4.7570    11.9260    43.1490 h1         1 K3X       0.077700
@<TRIPOS>BOND
     1     1     2 ar  
     2     1     3 ar  
     3     1    36 1   
     4     2     6 ar  
     5     2    37 1   
     6     3    10 ar  
     7     3    38 1   
     8     4     7 ar  
     9     4    11 ar  
    10     4    62 1   
    11     5     8 ar  
    12     5    11 ar  
    13     5    39 1   
    14     6    12 ar  
    15     6    40 1   
    16     7    13 ar  
    17     7    41 1   
    18     8    13 ar  
    19     8    42 1   
    20     9    10 1   
    21     9    15 2   
    22     9    43 1   
    23    10    12 ar  
    24    11    61 1   
    25    12    30 1   
    26    13    35 1   
    27    14    15 1   
    28    14    16 2   
    29    14    29 1   
    30    15    30 1   
    31    16    28 1   
    32    16    31 1   
    33    17    18 1   
    34    17    29 2   
    35    17    31 1   
    36    18    21 2   
    37    18    44 1   
    38    19    20 2   
    39    19    21 1   
    40    19    45 1   
    41    20    31 1   
    42    20    46 1   
    43    21    22 1   
    44    22    32 1   
    45    22    34 2   
    46    23    24 1   
    47    23    25 1   
    48    23    47 1   
    49    23    48 1   
    50    24    27 1   
    51    24    49 1   
    52    24    50 1   
    53    25    32 1   
    54    25    51 1   
    55    25    52 1   
    56    26    27 1   
    57    26    32 1   
    58    26    53 1   
    59    26    54 1   
    60    27    33 1   
    61    27    55 1   
    62    28    56 1   
    63    28    57 1   
    64    28    58 1   
    65    30    61 1   
    66    33    59 1   
    67    33    60 1   
    68    61    63 1   
    69    61    64 1   
@<TRIPOS>SUBSTRUCTURE
     1 K3X         1 TEMP              0 ****  ****    0 ROOT
