@<TRIPOS>MOLECULE
K3X
   64    69     1     0     0
SMALL
abcg2


@<TRIPOS>ATOM
      1 C36         -8.4770    12.4530    44.9690 ca         1 K3X      -0.141000
      2 C35         -7.0970    12.6250    45.1600 ca         1 K3X      -0.093000
      3 C37         -8.9960    12.2110    43.7130 ca         1 K3X      -0.061000
      4 C28         -5.1380    14.8650    40.6760 ca         1 K3X      -0.068000
      5 C32         -3.5180    14.4960    42.4010 ca         1 K3X      -0.068000
      6 C34         -6.2090    12.5540    44.1040 ca         1 K3X      -0.121000
      7 C29         -4.9090    16.2310    40.7390 ca         1 K3X      -0.153500
      8 C31         -3.2710    15.8610    42.4770 ca         1 K3X      -0.153500
      9 C22         -8.2910    11.9120    41.2270 cc         1 K3X      -0.220200
     10 C23         -8.1210    12.1390    42.6230 ca         1 K3X      -0.100800
     11 C27         -4.4470    13.9820    41.5040 ca         1 K3X      -0.127300
     12 C24         -6.7360    12.3030    42.8370 ca         1 K3X      -0.038200
     13 C30         -3.9750    16.7040    41.6420 ca         1 K3X       0.177000
     14 C3          -6.7070    11.7410    39.2550 cd         1 K3X       0.114600
     15 C21         -7.0470    11.9410    40.6570 cd         1 K3X       0.008900
     16 C2          -7.3310    12.3410    38.1810 cc         1 K3X      -0.147300
     17 C5          -5.7290    10.9350    37.5420 cc         1 K3X      -0.083000
     18 C6          -4.9410    10.2490    36.5990 cc         1 K3X      -0.022000
     19 C18         -6.1390    11.3980    34.8460 cd         1 K3X      -0.125000
     20 C19         -6.9120    12.0360    35.7560 cc         1 K3X      -0.113000
     21 C7          -5.1290    10.4880    35.2680 cd         1 K3X      -0.140600
     22 C8          -4.3520     9.6940    34.2620 c          1 K3X       0.622700
     23 C14         -3.7450    12.5020    32.1080 c6         1 K3X      -0.091400
     24 C13         -3.1230    11.8100    30.9020 c6         1 K3X      -0.078400
     25 C15         -3.3440    11.7980    33.3950 c6         1 K3X       0.102000
     26 C10         -3.0270     9.6950    32.2190 c6         1 K3X       0.092000
     27 C11         -3.4580    10.3240    30.8950 c6         1 K3X       0.146500
     28 C1          -8.4040    13.3560    38.0810 c3         1 K3X      -0.025900
     29 N4          -5.7250    10.8860    38.8570 nd         1 K3X      -0.273600
     30 N25         -6.0980    12.1670    41.6330 na         1 K3X      -0.068700
     31 N20         -6.7010    11.8120    37.0860 na         1 K3X       0.132100
     32 N9          -3.6650    10.3800    33.3290 n          1 K3X      -0.407800
     33 N16         -2.7570     9.6540    29.8130 n8         1 K3X      -0.998200
     34 O17         -4.3950     8.4720    34.3100 o          1 K3X      -0.586100
     35 F33         -3.7500    18.0260    41.7110 f          1 K3X      -0.179000
     36 H1          -9.1410    12.5140    45.8220 ha         1 K3X       0.109000
     37 H2          -6.7190    12.8160    46.1570 ha         1 K3X       0.108000
     38 H3         -10.0620    12.0810    43.5710 ha         1 K3X       0.112000
     39 H5          -2.9770    13.8250    43.0570 ha         1 K3X       0.119000
     40 H6          -5.1470    12.6880    44.2650 ha         1 K3X       0.113000
     41 H7          -5.4470    16.9150    40.0950 ha         1 K3X       0.132000
     42 H8          -2.5490    16.2570    43.1790 ha         1 K3X       0.132000
     43 H9          -9.2140    11.7060    40.7070 ha         1 K3X       0.204000
     44 H10         -4.1950     9.5530    36.9580 ha         1 K3X       0.157000
     45 H11         -6.3170    11.5780    33.7950 ha         1 K3X       0.136000
     46 H12         -7.7030    12.7220    35.4900 h4         1 K3X       0.148000
     47 H13         -3.4250    13.5450    32.1590 hc         1 K3X       0.047700
     48 H14         -4.8360    12.5050    32.0200 hc         1 K3X       0.047700
     49 H15         -2.0340    11.9230    30.9320 hc         1 K3X       0.051200
     50 H16         -3.4670    12.2790    29.9750 hc         1 K3X       0.051200
     51 H17         -2.2620    11.8920    33.5390 h1         1 K3X       0.052200
     52 H18         -3.8170    12.2570    34.2590 h1         1 K3X       0.052200
     53 H19         -3.2860     8.6380    32.2480 h1         1 K3X       0.068700
     54 H20         -1.9380     9.7750    32.3160 h1         1 K3X       0.068700
     55 H21         -4.5530    10.2240    30.8250 h1         1 K3X       0.023700
     56 H22         -9.3160    12.9470    37.6400 hc         1 K3X       0.054033
     57 H23         -8.6530    13.7270    39.0730 hc         1 K3X       0.054033
     58 H24         -8.0950    14.2070    37.4710 hc         1 K3X       0.054033
     59 H27         -3.0800     8.6970    29.7380 hn         1 K3X       0.399000
     60 H28         -3.0010    10.0930    28.9330 hn         1 K3X       0.399000
     61 C26         -4.7030    12.4970    41.4270 c3         1 K3X       0.120900
     62 H4          -5.8670    14.4900    39.9680 ha         1 K3X       0.119000
     63 H25         -4.4010    12.1000    40.4600 h1         1 K3X       0.077700
     64 H26         -4.1040    11.9740    42.1750 h1         1 K3X       0.077700
@<TRIPOS>BOND
     1     1     2 ar  
     2     1     3 ar  
     3     1    36 1   
     4     2     6 ar  
     5     2    37 1   
     6     3    10 ar  
     7     3    38 1   
     8     4     7 ar  
     9     4    11 ar  
    10     4    62 1   
    11     5     8 ar  
    12     5    11 ar  
    13     5    39 1   
    14     6    12 ar  
    15     6    40 1   
    16     7    13 ar  
    17     7    41 1   
    18     8    13 ar  
    19     8    42 1   
    20     9    10 1   
    21     9    15 2   
    22     9    43 1   
    23    10    12 ar  
    24    11    61 1   
    25    12    30 1   
    26    13    35 1   
    27    14    15 1   
    28    14    16 2   
    29    14    29 1   
    30    15    30 1   
    31    16    28 1   
    32    16    31 1   
    33    17    18 1   
    34    17    29 2   
    35    17    31 1   
    36    18    21 2   
    37    18    44 1   
    38    19    20 2   
    39    19    21 1   
    40    19    45 1   
    41    20    31 1   
    42    20    46 1   
    43    21    22 1   
    44    22    32 1   
    45    22    34 2   
    46    23    24 1   
    47    23    25 1   
    48    23    47 1   
    49    23    48 1   
    50    24    27 1   
    51    24    49 1   
    52    24    50 1   
    53    25    32 1   
    54    25    51 1   
    55    25    52 1   
    56    26    27 1   
    57    26    32 1   
    58    26    53 1   
    59    26    54 1   
    60    27    33 1   
    61    27    55 1   
    62    28    56 1   
    63    28    57 1   
    64    28    58 1   
    65    30    61 1   
    66    33    59 1   
    67    33    60 1   
    68    61    63 1   
    69    61    64 1   
@<TRIPOS>SUBSTRUCTURE
     1 K3X         1 TEMP              0 ****  ****    0 ROOT
