@<TRIPOS>MOLECULE
K3Y
   31    32     1     0     0
SMALL
abcg2


@<TRIPOS>ATOM
      1 N1           2.7890    -2.5340    -0.3270 nt         1 K3Y      -0.607000
      2 N3          -3.2320     0.4090     1.2710 n7         1 K3Y      -0.848400
      3 C4           0.4040     0.2970     0.1120 cc         1 K3Y       0.323300
      4 C5          -1.0370    -0.0960     0.1870 c6         1 K3Y      -0.130000
      5 C6          -1.7060     0.0080    -1.1900 c6         1 K3Y      -0.066400
      6 C7          -3.1850    -0.3480    -1.1050 c6         1 K3Y      -0.112400
      7 C8          -3.8780     0.4850    -0.0310 c6         1 K3Y       0.147800
      8 N            2.0950     1.5810     0.1430 na         1 K3Y       0.142800
      9 C            2.8080     2.8290     0.2740 c3         1 K3Y       0.071900
     10 O            0.5850    -2.5730    -0.7940 o          1 K3Y      -0.608100
     11 C1           2.6020     0.3780    -0.1270 cd         1 K3Y      -0.139000
     12 C2           1.5380    -0.5070    -0.1600 cc         1 K3Y      -0.276600
     13 C3           1.5810    -1.9480    -0.4470 c          1 K3Y       0.652700
     14 C9          -1.8210     0.7480     1.2020 c6         1 K3Y       0.155800
     15 N2           0.7710     1.5510     0.2970 nd         1 K3Y      -0.532800
     16 H1           2.8720    -3.5270    -0.4690 hn         1 K3Y       0.308000
     17 H2           3.5610    -2.0800     0.1290 hn         1 K3Y       0.308000
     18 H5          -1.0870    -1.1420     0.5040 hc         1 K3Y       0.073700
     19 H6          -1.5950     1.0340    -1.5570 hc         1 K3Y       0.050700
     20 H7          -1.1920    -0.6400    -1.9020 hc         1 K3Y       0.050700
     21 H8          -3.6700    -0.1930    -2.0730 hc         1 K3Y       0.044700
     22 H9          -3.2950    -1.4110    -0.8620 hc         1 K3Y       0.044700
     23 H10         -4.9210     0.1810     0.0800 h1         1 K3Y       0.049200
     24 H11         -3.8900     1.5360    -0.3410 h1         1 K3Y       0.049200
     25 H12          2.6860     3.2290     1.2790 h1         1 K3Y       0.059033
     26 H13          3.8630     2.6540     0.0880 h1         1 K3Y       0.059033
     27 H14          2.4340     3.5530    -0.4470 h1         1 K3Y       0.059033
     28 H15          3.6580     0.2370    -0.2910 h4         1 K3Y       0.152000
     29 H16         -1.7390     1.8060     0.9340 h1         1 K3Y       0.058700
     30 H17         -1.3870     0.6410     2.1990 h1         1 K3Y       0.058700
     31 H3          -3.3270    -0.5350     1.6290 hn         1 K3Y       0.401000
@<TRIPOS>BOND
     1     1    13 1   
     2     1    16 1   
     3     1    17 1   
     4     2     7 1   
     5     2    14 1   
     6     2    31 1   
     7     3     4 1   
     8     3    12 1   
     9     3    15 2   
    10     4     5 1   
    11     4    14 1   
    12     4    18 1   
    13     5     6 1   
    14     5    19 1   
    15     5    20 1   
    16     6     7 1   
    17     6    21 1   
    18     6    22 1   
    19     7    23 1   
    20     7    24 1   
    21     8     9 1   
    22     8    11 1   
    23     8    15 1   
    24     9    25 1   
    25     9    26 1   
    26     9    27 1   
    27    10    13 2   
    28    11    12 2   
    29    11    28 1   
    30    12    13 1   
    31    14    29 1   
    32    14    30 1   
@<TRIPOS>SUBSTRUCTURE
     1 K3Y         1 TEMP              0 ****  ****    0 ROOT
