@<TRIPOS>MOLECULE
K3Y
   31    32     1     0     0
SMALL
No Charge or Current Charge


@<TRIPOS>ATOM
      1 N1           2.6610    -2.4550    -0.6080 nt         1 K3Y      -0.607000
      2 N3          -3.3100     0.4330     1.2270 n7         1 K3Y      -0.848400
      3 C4           0.4050     0.4260     0.2110 cc         1 K3Y       0.323300
      4 C5          -1.0400    -0.0420     0.2750 c6         1 K3Y      -0.130000
      5 C6          -1.6590    -0.0900    -1.1510 c6         1 K3Y      -0.066400
      6 C7          -3.1510    -0.4990    -1.0840 c6         1 K3Y      -0.112400
      7 C8          -3.9380     0.4180    -0.1170 c6         1 K3Y       0.147800
      8 N            2.1620     1.6200     0.2390 na         1 K3Y       0.142800
      9 C            2.9850     2.8300     0.3740 c3         1 K3Y       0.071900
     10 O            0.4660    -2.5980    -0.3970 o          1 K3Y      -0.608100
     11 C1           2.6180     0.3370    -0.0560 cd         1 K3Y      -0.139000
     12 C2           1.4890    -0.4400    -0.0790 cc         1 K3Y      -0.276600
     13 C3           1.4590    -1.8950    -0.3650 c          1 K3Y       0.652700
     14 C9          -1.8940     0.8810     1.1880 c6         1 K3Y       0.155800
     15 N2           0.7900     1.6750     0.4020 nd         1 K3Y      -0.532800
     16 H1           2.7110    -3.4420    -0.8090 hn         1 K3Y       0.308000
     17 H2           3.4940    -1.8890    -0.5860 hn         1 K3Y       0.308000
     18 H5          -1.0860    -1.0420     0.7210 hc         1 K3Y       0.073700
     19 H6          -1.5690     0.8960    -1.6280 hc         1 K3Y       0.050700
     20 H7          -1.1070    -0.7950    -1.7880 hc         1 K3Y       0.050700
     21 H8          -3.5970    -0.4510    -2.0870 hc         1 K3Y       0.044700
     22 H9          -3.2350    -1.5440    -0.7550 hc         1 K3Y       0.044700
     23 H10         -4.9770     0.0650    -0.0370 h1         1 K3Y       0.049200
     24 H11         -3.9650     1.4410    -0.5220 h1         1 K3Y       0.049200
     25 H12          2.8430     3.2590     1.3730 h1         1 K3Y       0.059033
     26 H13          4.0430     2.5770     0.2360 h1         1 K3Y       0.059033
     27 H14          2.6850     3.5620    -0.3840 h1         1 K3Y       0.059033
     28 H15          3.6650     0.1080    -0.2200 h4         1 K3Y       0.152000
     29 H16         -1.8520     1.9180     0.8190 h1         1 K3Y       0.058700
     30 H17         -1.4780     0.8780     2.2080 h1         1 K3Y       0.058700
     31 H3          -3.3340    -0.5220     1.6020 hn         1 K3Y       0.401000
@<TRIPOS>BOND
     1     1    13 1   
     2     1    16 1   
     3     1    17 1   
     4     2     7 1   
     5     2    14 1   
     6     2    31 1   
     7     3     4 1   
     8     3    12 1   
     9     3    15 2   
    10     4     5 1   
    11     4    14 1   
    12     4    18 1   
    13     5     6 1   
    14     5    19 1   
    15     5    20 1   
    16     6     7 1   
    17     6    21 1   
    18     6    22 1   
    19     7    23 1   
    20     7    24 1   
    21     8     9 1   
    22     8    11 1   
    23     8    15 1   
    24     9    25 1   
    25     9    26 1   
    26     9    27 1   
    27    10    13 2   
    28    11    12 2   
    29    11    28 1   
    30    12    13 1   
    31    14    29 1   
    32    14    30 1   
@<TRIPOS>SUBSTRUCTURE
     1 K3Y         1 TEMP              0 ****  ****    0 ROOT
