@<TRIPOS>MOLECULE
K3Z
   22    22     1     0     0
SMALL
bcc


@<TRIPOS>ATOM
      1 C02          3.9320    -0.0440    -0.0220 c          1 K3Z       0.905800
      2 C04          2.4810     0.3730    -0.0090 ce         1 K3Z      -0.167200
      3 C05          1.4700    -0.5000     0.0110 cf         1 K3Z      -0.184200
      4 C06          0.0390    -0.2010     0.0180 ca         1 K3Z      -0.028800
      5 C07         -0.4790     1.1020     0.0150 ca         1 K3Z      -0.108000
      6 C08         -1.8370     1.3370     0.0160 ca         1 K3Z      -0.189500
      7 C09         -2.7410     0.2690     0.0190 ca         1 K3Z       0.098100
      8 C11         -5.0030    -0.4490     0.0120 c3         1 K3Z       0.133700
      9 C12         -2.2510    -1.0330     0.0250 ca         1 K3Z      -0.189500
     10 C13         -0.8780    -1.2490     0.0240 ca         1 K3Z      -0.108000
     11 O01          4.7600     0.8910    -0.0310 o          1 K3Z      -0.830300
     12 O03          4.1900    -1.2660    -0.0240 o          1 K3Z      -0.830300
     13 O10         -4.0460     0.5930     0.0180 os         1 K3Z      -0.330900
     14 H041         2.2890     1.4420    -0.0180 ha         1 K3Z       0.092000
     15 H051         1.7210    -1.5570     0.0180 ha         1 K3Z       0.139000
     16 H071         0.1920     1.9530     0.0110 ha         1 K3Z       0.132500
     17 H081        -2.2140     2.3530     0.0130 ha         1 K3Z       0.122500
     18 H111        -5.9790     0.0290     0.0030 h1         1 K3Z       0.030033
     19 H113        -4.9130    -1.0820    -0.8740 h1         1 K3Z       0.030033
     20 H112        -4.9280    -1.0770     0.9030 h1         1 K3Z       0.030033
     21 H121        -2.9130    -1.8880     0.0290 ha         1 K3Z       0.122500
     22 H131        -0.5160    -2.2710     0.0270 ha         1 K3Z       0.132500
@<TRIPOS>BOND
     1     1     2 1   
     2     1    11 1   
     3     1    12 1   
     4     2     3 2   
     5     2    14 1   
     6     3     4 1   
     7     3    15 1   
     8     4     5 ar  
     9     4    10 ar  
    10     5     6 ar  
    11     5    16 1   
    12     6     7 ar  
    13     6    17 1   
    14     7     9 ar  
    15     7    13 1   
    16     8    13 1   
    17     8    18 1   
    18     8    19 1   
    19     8    20 1   
    20     9    10 ar  
    21     9    21 1   
    22    10    22 1   
@<TRIPOS>SUBSTRUCTURE
     1 K3Z         1 TEMP              0 ****  ****    0 ROOT
