@<TRIPOS>MOLECULE
K3Z
   22    22     1     0     0
SMALL
No Charge or Current Charge


@<TRIPOS>ATOM
      1 C02          4.0020    -0.0170    -0.0080 c          1 K3Z       0.695200
      2 C04          2.5550     0.3660    -0.0050 ce         1 K3Z      -0.217200
      3 C05          1.4920    -0.4990     0.0020 cf         1 K3Z      -0.234200
      4 C06          0.0430    -0.2120     0.0060 ca         1 K3Z      -0.028800
      5 C07         -0.4520     1.1090     0.0030 ca         1 K3Z      -0.090000
      6 C08         -1.8380     1.3500     0.0070 ca         1 K3Z      -0.171500
      7 C09         -2.7480     0.2810     0.0140 ca         1 K3Z       0.098100
      8 C11         -5.1060    -0.4440     0.0240 c3         1 K3Z       0.156900
      9 C12         -2.2600    -1.0430     0.0170 ca         1 K3Z      -0.171500
     10 C13         -0.8740    -1.2820     0.0130 ca         1 K3Z      -0.090000
     11 O01          4.8250     0.8850    -0.0150 o          1 K3Z      -0.725000
     12 O03          4.3020    -1.2010    -0.0050 o          1 K3Z      -0.725000
     13 O10         -4.0950     0.5790     0.0170 os         1 K3Z      -0.354100
     14 H041         2.3750     1.4370    -0.0080 ha         1 K3Z       0.142000
     15 H051         1.7290    -1.5660     0.0050 ha         1 K3Z       0.189000
     16 H071         0.2260     1.9570    -0.0020 ha         1 K3Z       0.114500
     17 H081        -2.2080     2.3720     0.0050 ha         1 K3Z       0.104500
     18 H111        -6.1050     0.0090     0.0260 h1         1 K3Z       0.030033
     19 H113        -5.0230    -1.0800    -0.8660 h1         1 K3Z       0.030033
     20 H112        -5.0170    -1.0750     0.9180 h1         1 K3Z       0.030033
     21 H121        -2.9350    -1.8940     0.0220 ha         1 K3Z       0.104500
     22 H131        -0.5130    -2.3080     0.0150 ha         1 K3Z       0.114500
@<TRIPOS>BOND
     1     1     2 1   
     2     1    11 1   
     3     1    12 1   
     4     2     3 2   
     5     2    14 1   
     6     3     4 1   
     7     3    15 1   
     8     4     5 ar  
     9     4    10 ar  
    10     5     6 ar  
    11     5    16 1   
    12     6     7 ar  
    13     6    17 1   
    14     7     9 ar  
    15     7    13 1   
    16     8    13 1   
    17     8    18 1   
    18     8    19 1   
    19     8    20 1   
    20     9    10 ar  
    21     9    21 1   
    22    10    22 1   
@<TRIPOS>SUBSTRUCTURE
     1 K3Z         1 TEMP              0 ****  ****    0 ROOT
