@<TRIPOS>MOLECULE
K40
   24    26     1     0     0
SMALL
abcg2


@<TRIPOS>ATOM
      1 C4          14.8870    38.1810   -14.4690 ca         1 K40       0.175000
      2 C5          14.1480    34.7250   -15.2670 cc         1 K40      -0.142300
      3 C6          15.9180    35.7240   -16.6820 c6         1 K40      -0.019200
      4 C8          12.8980    37.0440   -12.8510 ca         1 K40       0.097000
      5 C13         13.2870    38.3490   -12.6690 ca         1 K40      -0.069000
      6 C1          14.5230    36.8450   -14.6800 ca         1 K40      -0.091800
      7 C2          14.9260    35.8070   -15.5700 cd         1 K40      -0.084400
      8 C3          13.5070    36.2950   -13.8580 ca         1 K40      -0.028200
      9 N7          13.2970    35.0130   -14.2400 na         1 K40      -0.165700
     10 C9          14.2810    38.9190   -13.4810 ca         1 K40      -0.130000
     11 CL10        16.0980    38.9080   -15.4660 cl         1 K40      -0.194000
     12 C11         14.1460    33.4590   -16.0110 c          1 K40       0.594200
     13 C12         16.3100    34.2630   -16.8750 c6         1 K40       0.105000
     14 CL14        11.6770    36.3180   -11.8710 cl         1 K40      -0.190000
     15 N15         15.1490    33.3840   -16.9080 ns         1 K40      -0.493900
     16 O16         13.2870    32.6040   -15.8520 o          1 K40      -0.561000
     17 H1          15.4940    36.1360   -17.6020 hc         1 K40       0.067700
     18 H2          16.8200    36.2950   -16.4660 hc         1 K40       0.067700
     19 H3          12.8270    38.9500   -11.8970 ha         1 K40       0.133000
     20 H4          12.6140    34.3800   -13.8520 hn         1 K40       0.381000
     21 H5          14.5620    39.9510   -13.3200 ha         1 K40       0.133000
     22 H6          16.8490    34.1390   -17.8110 h1         1 K40       0.047200
     23 H7          16.9850    33.9630   -16.0660 h1         1 K40       0.047200
     24 H8          15.2380    32.5140   -17.4130 hn         1 K40       0.321500
@<TRIPOS>BOND
     1     1     6 ar  
     2     1    10 ar  
     3     1    11 1   
     4     2     7 2   
     5     2     9 1   
     6     2    12 1   
     7     3     7 1   
     8     3    13 1   
     9     3    17 1   
    10     3    18 1   
    11     4     5 ar  
    12     4     8 ar  
    13     4    14 1   
    14     5    10 ar  
    15     5    19 1   
    16     6     7 1   
    17     6     8 ar  
    18     8     9 1   
    19     9    20 1   
    20    10    21 1   
    21    12    15 1   
    22    12    16 2   
    23    13    15 1   
    24    13    22 1   
    25    13    23 1   
    26    15    24 1   
@<TRIPOS>SUBSTRUCTURE
     1 K40         1 TEMP              0 ****  ****    0 ROOT
