@<TRIPOS>MOLECULE
K40
   24    26     1     0     0
SMALL
No Charge or Current Charge


@<TRIPOS>ATOM
      1 C4          14.9450    38.1530   -14.4450 ca         1 K40       0.175000
      2 C5          14.0920    34.6310   -15.2490 cc         1 K40      -0.142300
      3 C6          15.8870    35.7280   -16.6320 c6         1 K40      -0.019200
      4 C8          12.8390    37.0950   -12.8540 ca         1 K40       0.097000
      5 C13         13.2740    38.4220   -12.6650 ca         1 K40      -0.069000
      6 C1          14.4950    36.8270   -14.6060 ca         1 K40      -0.091800
      7 C2          14.8840    35.7470   -15.4980 cd         1 K40      -0.084400
      8 C3          13.4740    36.3230   -13.8390 ca         1 K40      -0.028200
      9 N7          13.2160    35.0160   -14.2140 na         1 K40      -0.165700
     10 C9          14.3220    38.9480   -13.4590 ca         1 K40      -0.130000
     11 Cl10        16.2300    38.8470   -15.4270 cl         1 K40      -0.194000
     12 C11         14.1900    33.3600   -16.0030 c          1 K40       0.594200
     13 C12         16.3270    34.2880   -16.9940 c6         1 K40       0.105000
     14 Cl14        11.5300    36.4310   -11.8810 cl         1 K40      -0.190000
     15 N15         15.2470    33.2930   -16.8800 ns         1 K40      -0.493900
     16 O16         13.4200    32.4230   -15.8660 o          1 K40      -0.561000
     17 H1          15.4390    36.1990   -17.5180 hc         1 K40       0.067700
     18 H2          16.7820    36.3130   -16.3890 hc         1 K40       0.067700
     19 H3          12.8000    39.0430   -11.9090 ha         1 K40       0.133000
     20 H4          12.4960    34.4260   -13.8070 hn         1 K40       0.381000
     21 H5          14.6480    39.9740   -13.3120 ha         1 K40       0.133000
     22 H6          16.7380    34.2650   -18.0130 h1         1 K40       0.047200
     23 H7          17.1290    33.9810   -16.3070 h1         1 K40       0.047200
     24 H8          15.3240    32.4330   -17.4110 hn         1 K40       0.321500
@<TRIPOS>BOND
     1     1     6 ar  
     2     1    10 ar  
     3     1    11 1   
     4     2     7 2   
     5     2     9 1   
     6     2    12 1   
     7     3     7 1   
     8     3    13 1   
     9     3    17 1   
    10     3    18 1   
    11     4     5 ar  
    12     4     8 ar  
    13     4    14 1   
    14     5    10 ar  
    15     5    19 1   
    16     6     7 1   
    17     6     8 ar  
    18     8     9 1   
    19     9    20 1   
    20    10    21 1   
    21    12    15 1   
    22    12    16 2   
    23    13    15 1   
    24    13    22 1   
    25    13    23 1   
    26    15    24 1   
@<TRIPOS>SUBSTRUCTURE
     1 K40         1 TEMP              0 ****  ****    0 ROOT
