@<TRIPOS>MOLECULE
K41
   23    23     1     0     0
SMALL
No Charge or Current Charge


@<TRIPOS>ATOM
      1 N1          -1.3370    -0.7990     0.9680 nc         1 K41      -0.370000
      2 N3          -2.9400     0.1040    -0.0910 na         1 K41       0.253600
      3 C4          -0.9220     0.1120     0.0490 cc         1 K41       0.630900
      4 C5          -4.3190     0.4040    -0.4970 c3         1 K41       0.078900
      5 N            0.3930     0.4090    -0.1650 ns         1 K41      -0.480400
      6 C            3.5980     1.2490     1.0480 c3         1 K41      -0.084600
      7 O            1.4870    -0.9470     1.3250 o          1 K41      -0.525100
      8 C1           2.8440     0.4930    -0.0740 c3         1 K41      -0.137700
      9 C2           3.7270    -0.5980    -0.7280 c3         1 K41      -0.084600
     10 C3           1.5150    -0.0980     0.4450 c          1 K41       0.610100
     11 N2          -2.6370    -0.8100     0.8850 nd         1 K41      -0.171800
     12 N4          -1.8510     0.7120    -0.6420 nd         1 K41      -0.593800
     13 H1          -4.7900     1.0400     0.2610 h1         1 K41       0.070700
     14 H2          -4.3160     0.9260    -1.4600 h1         1 K41       0.070700
     15 H3          -4.8840    -0.5300    -0.5920 h1         1 K41       0.070700
     16 H4           0.5690     1.1030    -0.8740 hn         1 K41       0.336500
     17 H5           4.5100     1.7160     0.6560 hc         1 K41       0.045367
     18 H6           2.9670     2.0400     1.4720 hc         1 K41       0.045367
     19 H7           3.8830     0.5670     1.8580 hc         1 K41       0.045367
     20 H8           2.6110     1.2280    -0.8550 hc         1 K41       0.054700
     21 H9           4.0180    -1.3590     0.0060 hc         1 K41       0.045367
     22 H10          3.1860    -1.0960    -1.5420 hc         1 K41       0.045367
     23 H11          4.6410    -0.1590    -1.1460 hc         1 K41       0.045367
@<TRIPOS>BOND
     1     1     3 1   
     2     1    11 2   
     3     2     4 1   
     4     2    11 1   
     5     2    12 1   
     6     3     5 1   
     7     3    12 2   
     8     4    13 1   
     9     4    14 1   
    10     4    15 1   
    11     5    10 1   
    12     5    16 1   
    13     6     8 1   
    14     6    17 1   
    15     6    18 1   
    16     6    19 1   
    17     7    10 2   
    18     8     9 1   
    19     8    10 1   
    20     8    20 1   
    21     9    21 1   
    22     9    22 1   
    23     9    23 1   
@<TRIPOS>SUBSTRUCTURE
     1 K41         1 TEMP              0 ****  ****    0 ROOT
