@<TRIPOS>MOLECULE
K41
   23    23     1     0     0
SMALL
abcg2


@<TRIPOS>ATOM
      1 N1          -1.3060    -1.1090     0.5130 nc         1 K41      -0.370000
      2 N3          -2.8970     0.1290    -0.0260 na         1 K41       0.253600
      3 C4          -0.8620     0.0210    -0.0530 cc         1 K41       0.630900
      4 C5          -4.2530     0.5990    -0.1940 c3         1 K41       0.078900
      5 N            0.4450     0.3750    -0.2770 ns         1 K41      -0.480400
      6 C            3.1610     1.3470     0.8930 c3         1 K41      -0.084600
      7 O            1.5040    -1.4460     0.5630 o          1 K41      -0.525100
      8 C1           2.8600     0.3720    -0.2520 c3         1 K41      -0.137700
      9 C2           4.0020    -0.6120    -0.4540 c3         1 K41      -0.084600
     10 C3           1.5600    -0.3500     0.0490 c          1 K41       0.610100
     11 N2          -2.6020    -1.0080     0.5140 nd         1 K41      -0.171800
     12 N4          -1.8500     0.8230    -0.4030 nd         1 K41      -0.593800
     13 H1          -4.4000     1.5080     0.3820 h1         1 K41       0.070700
     14 H2          -4.4410     0.7950    -1.2460 h1         1 K41       0.070700
     15 H3          -4.9250    -0.1750     0.1610 h1         1 K41       0.070700
     16 H4           0.5760     1.2720    -0.7220 hn         1 K41       0.336500
     17 H5           4.1010     1.8640     0.7010 hc         1 K41       0.045367
     18 H6           2.3840     2.1030     1.0060 hc         1 K41       0.045367
     19 H7           3.2600     0.8160     1.8410 hc         1 K41       0.045367
     20 H8           2.7300     0.9560    -1.1690 hc         1 K41       0.054700
     21 H9           4.1900    -1.1940     0.4480 hc         1 K41       0.045367
     22 H10          3.8010    -1.3080    -1.2700 hc         1 K41       0.045367
     23 H11          4.9150    -0.0710    -0.6980 hc         1 K41       0.045367
@<TRIPOS>BOND
     1     1     3 1   
     2     1    11 2   
     3     2     4 1   
     4     2    11 1   
     5     2    12 1   
     6     3     5 1   
     7     3    12 2   
     8     4    13 1   
     9     4    14 1   
    10     4    15 1   
    11     5    10 1   
    12     5    16 1   
    13     6     8 1   
    14     6    17 1   
    15     6    18 1   
    16     6    19 1   
    17     7    10 2   
    18     8     9 1   
    19     8    10 1   
    20     8    20 1   
    21     9    21 1   
    22     9    22 1   
    23     9    23 1   
@<TRIPOS>SUBSTRUCTURE
     1 K41         1 TEMP              0 ****  ****    0 ROOT
