@<TRIPOS>MOLECULE
K42
   22    22     1     0     0
SMALL
No Charge or Current Charge


@<TRIPOS>ATOM
      1 C8          52.6670    29.4970   -17.2540 c3         1 K42       0.151800
      2 C5          53.2540    29.9200   -12.5090 ca         1 K42      -0.133000
      3 C4          52.3140    30.0220   -13.5490 ca         1 K42       0.112100
      4 C2          50.6050    30.6390   -11.9170 ca         1 K42      -0.137000
      5 C6          52.8750    30.1760   -11.1780 ca         1 K42      -0.137000
      6 C1          51.5490    30.5360   -10.8840 ca         1 K42       0.100100
      7 C3          50.9810    30.3840   -13.2500 ca         1 K42      -0.133000
      8 O8          52.7430    29.7600   -14.8340 os         1 K42      -0.355100
      9 C7          51.8590    29.8410   -15.9730 c3         1 K42       0.163600
     10 N11         53.2270    28.1200   -17.2540 n8         1 K42      -0.996200
     11 H1          53.4950    30.2130   -17.3520 h1         1 K42       0.037200
     12 H2          52.0170    29.6110   -18.1330 h1         1 K42       0.037200
     13 H3          54.2800    29.6420   -12.7360 ha         1 K42       0.121500
     14 H4          49.5790    30.9180   -11.6880 ha         1 K42       0.120000
     15 H5          53.6140    30.0930   -10.3840 ha         1 K42       0.120000
     16 H6          51.9510    30.6670    -9.0120 ho         1 K42       0.461000
     17 H7          50.2290    30.4710   -14.0300 ha         1 K42       0.121500
     18 H8          51.4490    30.8540   -16.0710 h1         1 K42       0.041700
     19 H9          51.0230    29.1360   -15.8690 h1         1 K42       0.041700
     20 H10         53.8810    28.0230   -18.0410 hn         1 K42       0.399500
     21 H11         53.8290    28.0200   -16.4260 hn         1 K42       0.399500
     22 O1          51.1720    30.7860    -9.5980 oh         1 K42      -0.537100
@<TRIPOS>BOND
     1     1     9 1   
     2     1    10 1   
     3     1    11 1   
     4     1    12 1   
     5     2     3 ar  
     6     2     5 ar  
     7     2    13 1   
     8     3     7 ar  
     9     3     8 1   
    10     4     6 ar  
    11     4     7 ar  
    12     4    14 1   
    13     5     6 ar  
    14     5    15 1   
    15     6    22 1   
    16     7    17 1   
    17     8     9 1   
    18     9    18 1   
    19     9    19 1   
    20    10    20 1   
    21    10    21 1   
    22    16    22 1   
@<TRIPOS>SUBSTRUCTURE
     1 K42         1 TEMP              0 ****  ****    0 ROOT
