@<TRIPOS>MOLECULE
K42
   22    22     1     0     0
SMALL
abcg2


@<TRIPOS>ATOM
      1 C8          52.6860    29.5130   -17.1740 c3         1 K42       0.151800
      2 C5          53.2630    29.9450   -12.5330 ca         1 K42      -0.133000
      3 C4          52.3480    30.0440   -13.5800 ca         1 K42       0.112100
      4 C2          50.6380    30.6100   -11.9730 ca         1 K42      -0.137000
      5 C6          52.8720    30.1760   -11.2260 ca         1 K42      -0.137000
      6 C1          51.5520    30.5120   -10.9330 ca         1 K42       0.100100
      7 C3          51.0290    30.3790   -13.2870 ca         1 K42      -0.133000
      8 O8          52.8220    29.8070   -14.8240 os         1 K42      -0.355100
      9 C7          51.9190    29.8490   -15.9160 c3         1 K42       0.163600
     10 N11         53.1710    28.1430   -17.1520 n8         1 K42      -0.996200
     11 H1          53.4700    30.2680   -17.3270 h1         1 K42       0.037200
     12 H2          51.9880    29.6210   -18.0070 h1         1 K42       0.037200
     13 H3          54.2930    29.6860   -12.7470 ha         1 K42       0.121500
     14 H4          49.6080    30.8680   -11.7620 ha         1 K42       0.120000
     15 H5          53.6050    30.0940   -10.4310 ha         1 K42       0.120000
     16 H6          51.8380    30.6400    -9.0450 ho         1 K42       0.461000
     17 H7          50.2830    30.4670   -14.0650 ha         1 K42       0.121500
     18 H8          51.4740    30.8470   -16.0110 h1         1 K42       0.041700
     19 H9          51.1070    29.1280   -15.7710 h1         1 K42       0.041700
     20 H10         53.6020    27.9280   -18.0410 hn         1 K42       0.399500
     21 H11         53.9080    28.0520   -16.4640 hn         1 K42       0.399500
     22 O1          51.1170    30.7520    -9.6730 oh         1 K42      -0.537100
@<TRIPOS>BOND
     1     1     9 1   
     2     1    10 1   
     3     1    11 1   
     4     1    12 1   
     5     2     3 ar  
     6     2     5 ar  
     7     2    13 1   
     8     3     7 ar  
     9     3     8 1   
    10     4     6 ar  
    11     4     7 ar  
    12     4    14 1   
    13     5     6 ar  
    14     5    15 1   
    15     6    22 1   
    16     7    17 1   
    17     8     9 1   
    18     9    18 1   
    19     9    19 1   
    20    10    20 1   
    21    10    21 1   
    22    16    22 1   
@<TRIPOS>SUBSTRUCTURE
     1 K42         1 TEMP              0 ****  ****    0 ROOT
