@<TRIPOS>MOLECULE
K43
   68    74     1     0     0
SMALL
abcg2


@<TRIPOS>ATOM
      1 C12         29.6850    17.0010    55.1170 ca         1 K43       0.151900
      2 C14         28.9120    18.6080    53.8360 ca         1 K43       0.103500
      3 C15         28.8470    17.7760    52.7300 ca         1 K43      -0.076100
      4 C16         29.2490    16.4430    52.9290 ca         1 K43       0.430400
      5 C18         28.1610    19.6630    52.0780 cc         1 K43       0.445700
      6 C2          31.1570    16.7630    46.8370 ca         1 K43       0.151900
      7 C21         31.1490    20.9800    47.6990 c5         1 K43       0.052800
      8 C22         29.6900    21.4430    47.7370 c5         1 K43       0.145800
      9 C23         29.6690    22.4780    48.8510 c5         1 K43       0.223300
     10 C24         30.9770    23.2520    48.6550 c5         1 K43      -0.084200
     11 C25         31.4360    24.0020    49.8890 c3         1 K43       0.240100
     12 C26         31.9770    22.2150    48.1090 c5         1 K43      -0.078900
     13 C31         28.3720    21.0080    54.2440 c5         1 K43       0.052800
     14 C32         29.6930    21.7800    54.2180 c5         1 K43       0.145800
     15 C33         29.5350    22.6930    53.0120 c5         1 K43       0.223300
     16 C34         28.0940    23.2020    53.1380 c5         1 K43      -0.084200
     17 C35         27.5020    23.7310    51.8470 c3         1 K43       0.240100
     18 C36         27.3180    22.0300    53.7760 c5         1 K43      -0.078900
     19 C4          31.3220    18.5300    48.1290 ca         1 K43       0.103500
     20 C5          31.5880    17.7610    49.2510 ca         1 K43      -0.076100
     21 C6          31.6460    16.3690    49.0500 ca         1 K43       0.430400
     22 C8          31.6280    19.7700    49.8990 cc         1 K43       0.445700
     23 F22         29.4190    22.0820    46.5310 f          1 K43      -0.267000
     24 F32         29.7430    22.5590    55.3720 f          1 K43      -0.267000
     25 N1          31.4140    15.9020    47.8180 nb         1 K43      -0.326500
     26 N11         29.6710    16.0900    54.1480 nb         1 K43      -0.326500
     27 N13         29.3260    18.2710    55.0560 nb         1 K43      -0.203000
     28 N16         29.2030    15.5240    51.9600 nv         1 K43      -1.079400
     29 N17         28.3750    18.4560    51.6390 nd         1 K43      -0.565600
     30 N19         28.4580    19.8210    53.4060 na         1 K43      -0.266300
     31 N3          31.0950    18.0810    46.8960 nb         1 K43      -0.203000
     32 N6          31.9460    15.5080    50.0270 nv         1 K43      -1.079400
     33 N7          31.7750    18.5570    50.3500 nd         1 K43      -0.565600
     34 N9          31.3590    19.8250    48.5570 na         1 K43      -0.266300
     35 O23         28.5860    23.3660    48.8210 os         1 K43      -0.580900
     36 O25         31.7810    23.0750    50.9000 os         1 K43      -0.630900
     37 O33         30.4280    23.7700    52.9460 os         1 K43      -0.580900
     38 O35         27.3510    22.6630    50.9350 os         1 K43      -0.630900
     39 P25         31.9910    23.5700    52.4540 p5         1 K43       1.402800
     40 P35         27.0850    22.9170    49.3340 p5         1 K43       1.402800
     41 O25A        32.5770    24.9430    52.4880 o          1 K43      -0.817000
     42 O25B        32.6090    22.4010    53.1510 o          1 K43      -0.817000
     43 O35A        26.2400    24.1300    49.1270 o          1 K43      -0.817000
     44 O35B        26.7370    21.5660    48.7940 o          1 K43      -0.817000
     45 H1          30.0390    16.6500    56.0810 h5         1 K43       0.025600
     46 H2          27.7870    20.4780    51.4770 h5         1 K43       0.120800
     47 H5          28.9750    20.6310    47.8610 h1         1 K43       0.112200
     48 H6          29.7070    21.9250    49.8000 h1         1 K43       0.047700
     49 H7          30.7940    24.0060    47.8840 hc         1 K43       0.060700
     50 H8          32.2980    24.6290    49.6370 h1         1 K43       0.028200
     51 H9          30.6330    24.6720    50.2140 h1         1 K43       0.028200
     52 H10         32.7480    21.9550    48.8330 hc         1 K43       0.052700
     53 H11         32.5000    22.6070    47.2380 hc         1 K43       0.052700
     54 H12         28.1680    20.6490    55.2530 h1         1 K43       0.079200
     55 H13         30.5780    21.1460    54.1980 h1         1 K43       0.112200
     56 H14         29.6170    22.0550    52.1210 h1         1 K43       0.047700
     57 H15         28.1050    24.0430    53.8370 hc         1 K43       0.060700
     58 H16         28.1550    24.5160    51.4480 h1         1 K43       0.028200
     59 H17         26.5320    24.1940    52.0540 h1         1 K43       0.028200
     60 H18         26.7510    22.3750    54.6400 hc         1 K43       0.052700
     61 H19         26.5950    21.5800    53.0980 hc         1 K43       0.052700
     62 H20         31.7130    20.6640    50.5000 h5         1 K43       0.120800
     63 H21         29.6030    14.6140    52.1140 hn         1 K43       0.493750
     64 H22         29.0030    15.7920    51.0120 hn         1 K43       0.493750
     65 H23         31.8810    14.5190    49.8590 hn         1 K43       0.493750
     66 H24         32.0170    15.8200    50.9800 hn         1 K43       0.493750
     67 H3          30.9780    16.3190    45.8630 h5         1 K43       0.025600
     68 H4          31.3970    20.6450    46.6920 h1         1 K43       0.079200
@<TRIPOS>BOND
     1     1    26 ar  
     2     1    27 ar  
     3     1    45 1   
     4     2     3 ar  
     5     2    27 ar  
     6     2    30 1   
     7     3     4 ar  
     8     3    29 1   
     9     4    26 ar  
    10     4    28 1   
    11     5    29 2   
    12     5    30 1   
    13     5    46 1   
    14     6    25 ar  
    15     6    31 ar  
    16     6    67 1   
    17     7     8 1   
    18     7    12 1   
    19     7    34 1   
    20     7    68 1   
    21     8     9 1   
    22     8    23 1   
    23     8    47 1   
    24     9    10 1   
    25     9    35 1   
    26     9    48 1   
    27    10    11 1   
    28    10    12 1   
    29    10    49 1   
    30    11    36 1   
    31    11    50 1   
    32    11    51 1   
    33    12    52 1   
    34    12    53 1   
    35    13    14 1   
    36    13    18 1   
    37    13    30 1   
    38    13    54 1   
    39    14    15 1   
    40    14    24 1   
    41    14    55 1   
    42    15    16 1   
    43    15    37 1   
    44    15    56 1   
    45    16    17 1   
    46    16    18 1   
    47    16    57 1   
    48    17    38 1   
    49    17    58 1   
    50    17    59 1   
    51    18    60 1   
    52    18    61 1   
    53    19    20 ar  
    54    19    31 ar  
    55    19    34 1   
    56    20    21 ar  
    57    20    33 1   
    58    21    25 ar  
    59    21    32 1   
    60    22    33 2   
    61    22    34 1   
    62    22    62 1   
    63    28    63 1   
    64    28    64 1   
    65    32    65 1   
    66    32    66 1   
    67    35    40 1   
    68    36    39 1   
    69    37    39 1   
    70    38    40 1   
    71    39    41 1   
    72    39    42 1   
    73    40    43 1   
    74    40    44 1   
@<TRIPOS>SUBSTRUCTURE
     1 K43         1 TEMP              0 ****  ****    0 ROOT
