@<TRIPOS>MOLECULE
K43
   68    74     1     0     0
SMALL
No Charge or Current Charge


@<TRIPOS>ATOM
      1 C12         29.8320    17.0580    55.5680 ca         1 K43       0.151900
      2 C14         28.8800    18.6030    54.1730 ca         1 K43       0.103500
      3 C15         28.7620    17.6470    53.1960 ca         1 K43      -0.076100
      4 C16         29.2150    16.3420    53.4840 ca         1 K43       0.430400
      5 C18         27.9590    19.4460    52.3260 cc         1 K43       0.445700
      6 C2          30.7670    16.8660    46.5690 ca         1 K43       0.151900
      7 C21         31.3690    21.1870    47.5190 c5         1 K43       0.052800
      8 C22         29.8950    21.6810    47.4540 c5         1 K43       0.145800
      9 C23         29.8080    22.4740    48.7960 c5         1 K43       0.223300
     10 C24         31.0700    23.3750    48.7090 c5         1 K43      -0.084200
     11 C25         31.4920    24.0190    50.0480 c3         1 K43       0.240100
     12 C26         32.1450    22.4540    48.0290 c5         1 K43      -0.078900
     13 C31         28.2410    21.0440    54.3380 c5         1 K43       0.052800
     14 C32         29.5580    21.8730    54.3580 c5         1 K43       0.145800
     15 C33         29.4670    22.5740    52.9660 c5         1 K43       0.223300
     16 C34         28.0280    23.1570    53.0020 c5         1 K43      -0.084200
     17 C35         27.4770    23.5940    51.6270 c3         1 K43       0.240100
     18 C36         27.1930    22.0580    53.7500 c5         1 K43      -0.078900
     19 C4          31.3190    18.6800    47.8500 ca         1 K43       0.103500
     20 C5          31.6500    17.8460    48.8880 ca         1 K43      -0.076100
     21 C6          31.5180    16.4540    48.6910 ca         1 K43       0.430400
     22 C8          32.0020    19.8370    49.6300 cc         1 K43       0.445700
     23 F22         29.6910    22.4960    46.3280 f          1 K43      -0.267000
     24 F32         29.5560    22.7860    55.4250 f          1 K43      -0.267000
     25 N1          31.0720    15.9570    47.5270 nb         1 K43      -0.326500
     26 N11         29.7560    16.0410    54.6750 nb         1 K43      -0.326500
     27 N13         29.4180    18.3340    55.3800 nb         1 K43      -0.203000
     28 N16         29.1350    15.3170    52.5930 nv         1 K43      -1.079400
     29 N17         28.1870    18.1520    52.0270 nd         1 K43      -0.565600
     30 N19         28.3620    19.7500    53.6390 na         1 K43      -0.266300
     31 N3          30.8690    18.2130    46.6680 nb         1 K43      -0.203000
     32 N6          31.8280    15.5390    49.6470 nv         1 K43      -1.079400
     33 N7          32.0810    18.5480    50.0160 nd         1 K43      -0.565600
     34 N9          31.5490    19.9500    48.3030 na         1 K43      -0.266300
     35 O23         28.6510    23.3450    48.8240 os         1 K43      -0.580900
     36 O25         31.7500    22.9710    50.9860 os         1 K43      -0.630900
     37 O33         30.3870    23.6880    52.8710 os         1 K43      -0.580900
     38 O35         27.4790    22.4550    50.7630 os         1 K43      -0.630900
     39 P25         31.9290    23.3520    52.5370 p5         1 K43       1.402800
     40 P35         27.2290    22.6800    49.1910 p5         1 K43       1.402800
     41 O25A        32.8000    24.5520    52.6990 o          1 K43      -0.817000
     42 O25B        32.4390    22.1900    53.3170 o          1 K43      -0.817000
     43 O35A        26.1010    23.6280    48.9570 o          1 K43      -0.817000
     44 O35B        27.0110    21.3810    48.4940 o          1 K43      -0.817000
     45 H1          30.2690    16.8250    56.5370 h5         1 K43       0.025600
     46 H2          27.5110    20.1770    51.6630 h5         1 K43       0.120800
     47 H5          29.1920    20.8400    47.4030 h1         1 K43       0.112200
     48 H6          29.8180    21.8100    49.6720 h1         1 K43       0.047700
     49 H7          30.8640    24.2210    48.0420 hc         1 K43       0.060700
     50 H8          32.3910    24.6290    49.8890 h1         1 K43       0.028200
     51 H9          30.6860    24.6760    50.4010 h1         1 K43       0.028200
     52 H10         32.9760    22.2000    48.6960 hc         1 K43       0.052700
     53 H11         32.6040    22.9840    47.1860 hc         1 K43       0.052700
     54 H12         27.9560    20.8150    55.3740 h1         1 K43       0.079200
     55 H13         30.4370    21.2260    54.4590 h1         1 K43       0.112200
     56 H14         29.6190    21.8690    52.1360 h1         1 K43       0.047700
     57 H15         28.0240    24.0700    53.6100 hc         1 K43       0.060700
     58 H16         28.1090    24.3970    51.2250 h1         1 K43       0.028200
     59 H17         26.4580    23.9850    51.7530 h1         1 K43       0.028200
     60 H18         26.6170    22.5190    54.5610 hc         1 K43       0.052700
     61 H19         26.4500    21.5720    53.1090 hc         1 K43       0.052700
     62 H20         32.2600    20.6950    50.2390 h5         1 K43       0.120800
     63 H21         29.7010    14.4900    52.7600 hn         1 K43       0.493750
     64 H22         28.9320    15.5570    51.6260 hn         1 K43       0.493750
     65 H23         31.4740    14.5930    49.5400 hn         1 K43       0.493750
     66 H24         31.9620    15.8830    50.5940 hn         1 K43       0.493750
     67 H3          30.4040    16.4730    45.6210 h5         1 K43       0.025600
     68 H4          31.7080    20.9630    46.4980 h1         1 K43       0.079200
@<TRIPOS>BOND
     1     1    26 ar  
     2     1    27 ar  
     3     1    45 1   
     4     2     3 ar  
     5     2    27 ar  
     6     2    30 1   
     7     3     4 ar  
     8     3    29 1   
     9     4    26 ar  
    10     4    28 1   
    11     5    29 2   
    12     5    30 1   
    13     5    46 1   
    14     6    25 ar  
    15     6    31 ar  
    16     6    67 1   
    17     7     8 1   
    18     7    12 1   
    19     7    34 1   
    20     7    68 1   
    21     8     9 1   
    22     8    23 1   
    23     8    47 1   
    24     9    10 1   
    25     9    35 1   
    26     9    48 1   
    27    10    11 1   
    28    10    12 1   
    29    10    49 1   
    30    11    36 1   
    31    11    50 1   
    32    11    51 1   
    33    12    52 1   
    34    12    53 1   
    35    13    14 1   
    36    13    18 1   
    37    13    30 1   
    38    13    54 1   
    39    14    15 1   
    40    14    24 1   
    41    14    55 1   
    42    15    16 1   
    43    15    37 1   
    44    15    56 1   
    45    16    17 1   
    46    16    18 1   
    47    16    57 1   
    48    17    38 1   
    49    17    58 1   
    50    17    59 1   
    51    18    60 1   
    52    18    61 1   
    53    19    20 ar  
    54    19    31 ar  
    55    19    34 1   
    56    20    21 ar  
    57    20    33 1   
    58    21    25 ar  
    59    21    32 1   
    60    22    33 2   
    61    22    34 1   
    62    22    62 1   
    63    28    63 1   
    64    28    64 1   
    65    32    65 1   
    66    32    66 1   
    67    35    40 1   
    68    36    39 1   
    69    37    39 1   
    70    38    40 1   
    71    39    41 1   
    72    39    42 1   
    73    40    43 1   
    74    40    44 1   
@<TRIPOS>SUBSTRUCTURE
     1 K43         1 TEMP              0 ****  ****    0 ROOT
