@<TRIPOS>MOLECULE
K46
   46    48     1     0     0
SMALL
abcg2


@<TRIPOS>ATOM
      1 N1         -14.3960     0.0770   -32.6550 nh         1 K46      -0.845200
      2 N3         -17.3420    -2.0850   -31.9400 ns         1 K46      -0.508900
      3 C4         -11.2160    -2.6660   -32.5830 ca         1 K46      -0.196000
      4 C5         -12.5170    -3.1110   -32.3270 ca         1 K46       0.308000
      5 C6         -13.5860    -2.1930   -32.3120 ca         1 K46      -0.181300
      6 C7         -14.9750    -2.6960   -32.0050 c6         1 K46      -0.029100
      7 C8         -15.9880    -1.5710   -31.8570 c6         1 K46       0.083700
      8 C10        -14.3160     1.3450   -32.0740 ca         1 K46       0.343000
      9 C13        -14.2160     3.8970   -30.9060 ca         1 K46      -0.226300
     10 C15        -15.1450     2.3810   -32.5320 ca         1 K46      -0.160000
     11 C17        -18.3950    -1.4870   -31.3430 c          1 K46       0.592100
     12 C1         -13.3270    -0.8440   -32.5890 ca         1 K46       0.333000
     13 C2         -12.0240    -0.4120   -32.8650 ca         1 K46      -0.176000
     14 C3         -10.9810    -1.3230   -32.8460 ca         1 K46      -0.050000
     15 C9         -15.7110    -0.5000   -32.9160 c6         1 K46       0.204800
     16 N2         -12.7450    -4.4490   -32.0170 nv         1 K46      -1.073000
     17 C11        -13.4330     1.6210   -31.0170 ca         1 K46      -0.160000
     18 C12        -13.3840     2.8780   -30.4440 ca         1 K46      -0.030000
     19 C14        -15.1000     3.6360   -31.9510 ca         1 K46      -0.030000
     20 C16        -14.2030     5.2350   -30.2470 c3         1 K46       0.348300
     21 F1         -15.0270     5.2910   -29.1620 f          1 K46      -0.116333
     22 F2         -12.9760     5.5840   -29.7930 f          1 K46      -0.116333
     23 F3         -14.6120     6.2260   -31.0710 f          1 K46      -0.116333
     24 O1         -18.2740    -0.4690   -30.6580 o          1 K46      -0.602100
     25 C18        -19.7410    -2.1510   -31.5520 c3         1 K46      -0.153400
     26 C19        -20.3850    -2.5510   -30.2220 c3         1 K46      -0.081100
     27 H15        -17.5110    -2.8920   -32.5190 hn         1 K46       0.310500
     28 H3         -10.4020    -3.3810   -32.5870 ha         1 K46       0.115000
     29 H5         -14.9630    -3.3030   -31.0960 hc         1 K46       0.049700
     30 H4         -15.3040    -3.3610   -32.8150 hc         1 K46       0.049700
     31 H6         -15.8820    -1.0950   -30.8810 h1         1 K46       0.092700
     32 H14        -15.8160     2.2090   -33.3610 ha         1 K46       0.127000
     33 H1         -11.8420     0.6280   -33.0990 ha         1 K46       0.128000
     34 H2          -9.9740    -0.9880   -33.0600 ha         1 K46       0.116000
     35 H7         -15.7370    -0.9450   -33.9140 h1         1 K46       0.064200
     36 H8         -16.4680     0.2740   -32.8640 h1         1 K46       0.064200
     37 H9         -13.6540    -4.8130   -32.2600 hn         1 K46       0.446000
     38 H10        -12.0060    -5.0760   -32.3000 hn         1 K46       0.446000
     39 H11        -12.7920     0.8390   -30.6370 ha         1 K46       0.127000
     40 H12        -12.7040     3.0620   -29.6230 ha         1 K46       0.128500
     41 H13        -15.7450     4.4180   -32.3270 ha         1 K46       0.128500
     42 H16        -20.3770    -1.4240   -32.0650 hc         1 K46       0.056200
     43 H19        -19.6440    -3.0190   -32.2050 hc         1 K46       0.056200
     44 H17        -21.3740    -2.9780   -30.3930 hc         1 K46       0.044367
     45 H20        -19.7770    -3.2960   -29.7040 hc         1 K46       0.044367
     46 H18        -20.4930    -1.6840   -29.5700 hc         1 K46       0.044367
@<TRIPOS>BOND
     1     1     8 1   
     2     1    12 1   
     3     1    15 1   
     4     2     7 1   
     5     2    11 1   
     6     2    27 1   
     7     3     4 ar  
     8     3    14 ar  
     9     3    28 1   
    10     4     5 ar  
    11     4    16 1   
    12     5     6 1   
    13     5    12 ar  
    14     6     7 1   
    15     6    29 1   
    16     6    30 1   
    17     7    15 1   
    18     7    31 1   
    19     8    10 ar  
    20     8    17 ar  
    21     9    18 ar  
    22     9    19 ar  
    23     9    20 1   
    24    10    19 ar  
    25    10    32 1   
    26    11    24 2   
    27    11    25 1   
    28    12    13 ar  
    29    13    14 ar  
    30    13    33 1   
    31    14    34 1   
    32    15    35 1   
    33    15    36 1   
    34    16    37 1   
    35    16    38 1   
    36    17    18 ar  
    37    17    39 1   
    38    18    40 1   
    39    19    41 1   
    40    20    21 1   
    41    20    22 1   
    42    20    23 1   
    43    25    26 1   
    44    25    42 1   
    45    25    43 1   
    46    26    44 1   
    47    26    45 1   
    48    26    46 1   
@<TRIPOS>SUBSTRUCTURE
     1 K46         1 TEMP              0 ****  ****    0 ROOT
