@<TRIPOS>MOLECULE
K46
   46    48     1     0     0
SMALL
No Charge or Current Charge


@<TRIPOS>ATOM
      1 N1         -14.4750     0.1260   -32.2670 nh         1 K46      -0.845200
      2 N3         -17.4970    -2.1540   -31.8360 ns         1 K46      -0.508900
      3 C4         -11.2770    -2.6450   -32.5840 ca         1 K46      -0.196000
      4 C5         -12.5890    -3.1160   -32.4560 ca         1 K46       0.308000
      5 C6         -13.6690    -2.2130   -32.3360 ca         1 K46      -0.181300
      6 C7         -15.1150    -2.7370   -32.2160 c6         1 K46      -0.029100
      7 C8         -16.1080    -1.6770   -31.6920 c6         1 K46       0.083700
      8 C10        -14.2890     1.4740   -31.8840 ca         1 K46       0.343000
      9 C13        -13.9440     4.1770   -31.1020 ca         1 K46      -0.226300
     10 C15        -14.8780     2.5110   -32.6260 ca         1 K46      -0.160000
     11 C17        -18.5810    -1.6720   -31.1400 c          1 K46       0.592100
     12 C1         -13.4100    -0.8160   -32.3550 ca         1 K46       0.333000
     13 C2         -12.0820    -0.3650   -32.5050 ca         1 K46      -0.176000
     14 C3         -11.0190    -1.2700   -32.6110 ca         1 K46      -0.050000
     15 C9         -15.8730    -0.3510   -32.4540 c6         1 K46       0.204800
     16 N2         -12.7880    -4.4720   -32.4630 nv         1 K46      -1.073000
     17 C11        -13.5430     1.7960   -30.7370 ca         1 K46      -0.160000
     18 C12        -13.3690     3.1340   -30.3460 ca         1 K46      -0.030000
     19 C14        -14.7090     3.8520   -32.2430 ca         1 K46      -0.030000
     20 C16        -13.7670     5.6380   -30.6740 c3         1 K46       0.348300
     21 F1         -14.7530     6.0260   -29.8350 f          1 K46      -0.116333
     22 F2         -12.5950     5.8470   -30.0310 f          1 K46      -0.116333
     23 F3         -13.7860     6.4880   -31.7260 f          1 K46      -0.116333
     24 O1         -18.4810    -0.7640   -30.3270 o          1 K46      -0.602100
     25 C18        -19.9220    -2.3270   -31.4870 c3         1 K46      -0.153400
     26 C19        -20.4050    -3.2670   -30.3610 c3         1 K46      -0.081100
     27 H15        -17.6830    -2.9020   -32.4940 hn         1 K46       0.310500
     28 H3         -10.4510    -3.3460   -32.6730 ha         1 K46       0.115000
     29 H5         -15.1570    -3.6070   -31.5460 hc         1 K46       0.049700
     30 H4         -15.4410    -3.0880   -33.2050 hc         1 K46       0.049700
     31 H6         -15.9050    -1.5010   -30.6260 h1         1 K46       0.092700
     32 H14        -15.4620     2.2760   -33.5100 ha         1 K46       0.127000
     33 H1         -11.8650     0.6970   -32.5570 ha         1 K46       0.128000
     34 H2         -10.0000    -0.9060   -32.7240 ha         1 K46       0.116000
     35 H7         -16.0890    -0.4910   -33.5240 h1         1 K46       0.064200
     36 H8         -16.5880     0.3940   -32.0750 h1         1 K46       0.064200
     37 H9         -13.7330    -4.8390   -32.5350 hn         1 K46       0.446000
     38 H10        -12.0200    -5.0950   -32.7040 hn         1 K46       0.446000
     39 H11        -13.1030     1.0020   -30.1410 ha         1 K46       0.127000
     40 H12        -12.7910     3.3530   -29.4500 ha         1 K46       0.128500
     41 H13        -15.1780     4.6360   -32.8360 ha         1 K46       0.128500
     42 H16        -20.6750    -1.5420   -31.6240 hc         1 K46       0.056200
     43 H19        -19.8290    -2.9160   -32.4070 hc         1 K46       0.056200
     44 H17        -21.3650    -3.7250   -30.6280 hc         1 K46       0.044367
     45 H20        -19.6780    -4.0700   -30.1870 hc         1 K46       0.044367
     46 H18        -20.5390    -2.7150   -29.4230 hc         1 K46       0.044367
@<TRIPOS>BOND
     1     1     8 1   
     2     1    12 1   
     3     1    15 1   
     4     2     7 1   
     5     2    11 1   
     6     2    27 1   
     7     3     4 ar  
     8     3    14 ar  
     9     3    28 1   
    10     4     5 ar  
    11     4    16 1   
    12     5     6 1   
    13     5    12 ar  
    14     6     7 1   
    15     6    29 1   
    16     6    30 1   
    17     7    15 1   
    18     7    31 1   
    19     8    10 ar  
    20     8    17 ar  
    21     9    18 ar  
    22     9    19 ar  
    23     9    20 1   
    24    10    19 ar  
    25    10    32 1   
    26    11    24 2   
    27    11    25 1   
    28    12    13 ar  
    29    13    14 ar  
    30    13    33 1   
    31    14    34 1   
    32    15    35 1   
    33    15    36 1   
    34    16    37 1   
    35    16    38 1   
    36    17    18 ar  
    37    17    39 1   
    38    18    40 1   
    39    19    41 1   
    40    20    21 1   
    41    20    22 1   
    42    20    23 1   
    43    25    26 1   
    44    25    42 1   
    45    25    43 1   
    46    26    44 1   
    47    26    45 1   
    48    26    46 1   
@<TRIPOS>SUBSTRUCTURE
     1 K46         1 TEMP              0 ****  ****    0 ROOT
