@<TRIPOS>MOLECULE
K47
   61    65     1     0     0
SMALL
No Charge or Current Charge


@<TRIPOS>ATOM
      1 N01          3.8370    -2.2030     0.0760 na         1 K47      -0.266300
      2 C02          3.7180    -0.8060    -0.0730 cc         1 K47       0.515400
      3 N03          2.5030    -0.4980    -0.5620 nd         1 K47      -0.536100
      4 C04          1.8630    -1.7300    -0.7160 ca         1 K47      -0.035600
      5 C05          0.5560    -2.0030    -1.1870 ca         1 K47       0.413300
      6 N06          0.1350    -3.2890    -1.2790 nb         1 K47      -0.302000
      7 C07          1.0000    -4.2480    -0.8750 ca         1 K47       0.168900
      8 N08          2.2520    -4.0580    -0.4000 nb         1 K47      -0.195000
      9 C09          2.6630    -2.7770    -0.3320 ca         1 K47       0.100500
     10 C10          4.9570    -3.0250     0.5720 c3         1 K47       0.065900
     11 C11          4.7590     0.1460     0.2570 cc         1 K47      -0.263900
     12 O12         -0.2370    -0.9490    -1.6170 os         1 K47      -0.424300
     13 C13         -1.5980    -1.0870    -1.1170 c5         1 K47       0.160300
     14 C14         -2.4130     0.1320    -1.6240 c5         1 K47       0.098000
     15 N15         -3.4310     0.2840    -0.5580 n          1 K47      -0.423800
     16 C16         -3.0900    -0.4700     0.6700 c5         1 K47       0.108000
     17 C17         -1.6080    -0.8490     0.4160 c5         1 K47      -0.118400
     18 C18         -4.5930     1.0670    -0.7380 c          1 K47       0.611100
     19 O19         -4.7710     1.6560    -1.7970 o          1 K47      -0.599100
     20 C20         -5.6820     1.1090     0.3710 c6         1 K47      -0.136700
     21 C21         -6.4400     2.4620     0.4880 c6         1 K47      -0.105400
     22 C22         -7.5180     2.3890     1.5970 c6         1 K47       0.153600
     23 O23         -8.3920     1.2620     1.3650 os         1 K47      -0.446000
     24 C24         -7.7240    -0.0190     1.4080 c6         1 K47       0.153600
     25 C25         -6.6560    -0.1010     0.2900 c6         1 K47      -0.105400
     26 C26          4.6640     1.5090     0.1250 cd         1 K47      -0.067300
     27 N27          5.9100     1.9900     0.5670 na         1 K47       0.130800
     28 N28          6.7650     0.9740     0.9650 nd         1 K47      -0.519800
     29 C29          6.0440    -0.1070     0.7660 cc         1 K47       0.263900
     30 C30          3.5240     2.3770    -0.3670 c3         1 K47      -0.041800
     31 C31          6.3500     3.3970     0.6410 c3         1 K47       0.082600
     32 C32          5.8390     4.1280     1.8980 c3         1 K47      -0.112100
     33 H1           0.6550    -5.2780    -0.9430 h5         1 K47       0.050100
     34 H2           5.8360    -2.8780    -0.0670 h1         1 K47       0.060033
     35 H3           5.1940    -2.7440     1.6060 h1         1 K47       0.060033
     36 H4           4.6940    -4.0900     0.5570 h1         1 K47       0.060033
     37 H5          -2.0650    -2.0350    -1.4190 h1         1 K47       0.074700
     38 H6          -1.7920     1.0350    -1.7000 h1         1 K47       0.072700
     39 H7          -2.8640    -0.0660    -2.6050 h1         1 K47       0.072700
     40 H8          -3.1870     0.1320     1.5820 h1         1 K47       0.047200
     41 H9          -3.7230    -1.3620     0.7660 h1         1 K47       0.047200
     42 H10         -1.3070    -1.7330     0.9900 hc         1 K47       0.071700
     43 H11         -0.9400    -0.0270     0.6970 hc         1 K47       0.071700
     44 H12         -5.1600     0.9540     1.3220 hc         1 K47       0.054700
     45 H13         -5.7360     3.2770     0.7050 hc         1 K47       0.061950
     46 H14         -6.9240     2.7090    -0.4670 hc         1 K47       0.061950
     47 H15         -7.0440     2.2850     2.5840 h1         1 K47       0.043450
     48 H16         -8.1160     3.3110     1.6010 h1         1 K47       0.043450
     49 H17         -7.2560    -0.1520     2.3950 h1         1 K47       0.043450
     50 H18         -8.4690    -0.8160     1.2740 h1         1 K47       0.043450
     51 H19         -7.1550    -0.1120    -0.6880 hc         1 K47       0.061950
     52 H20         -6.1060    -1.0490     0.3710 hc         1 K47       0.061950
     53 H21          6.5040    -1.0520     1.0080 h4         1 K47       0.039100
     54 H22          3.7640     3.4450    -0.3410 hc         1 K47       0.062367
     55 H23          3.2630     2.1290    -1.4030 hc         1 K47       0.062367
     56 H24          2.6290     2.2320     0.2490 hc         1 K47       0.062367
     57 H25          7.4470     3.4210     0.6350 h1         1 K47       0.066700
     58 H26          6.0080     3.9230    -0.2580 h1         1 K47       0.066700
     59 H27          6.1950     5.1650     1.9080 hc         1 K47       0.050033
     60 H28          4.7430     4.1400     1.9240 hc         1 K47       0.050033
     61 H29          6.2000     3.6310     2.8060 hc         1 K47       0.050033
@<TRIPOS>BOND
     1     1     2 1   
     2     1     9 1   
     3     1    10 1   
     4     2     3 2   
     5     2    11 1   
     6     3     4 1   
     7     4     5 ar  
     8     4     9 ar  
     9     5     6 ar  
    10     5    12 1   
    11     6     7 ar  
    12     7     8 ar  
    13     7    33 1   
    14     8     9 ar  
    15    10    34 1   
    16    10    35 1   
    17    10    36 1   
    18    11    26 2   
    19    11    29 1   
    20    12    13 1   
    21    13    14 1   
    22    13    17 1   
    23    13    37 1   
    24    14    15 1   
    25    14    38 1   
    26    14    39 1   
    27    15    16 1   
    28    15    18 1   
    29    16    17 1   
    30    16    40 1   
    31    16    41 1   
    32    17    42 1   
    33    17    43 1   
    34    18    19 2   
    35    18    20 1   
    36    20    21 1   
    37    20    25 1   
    38    20    44 1   
    39    21    22 1   
    40    21    45 1   
    41    21    46 1   
    42    22    23 1   
    43    22    47 1   
    44    22    48 1   
    45    23    24 1   
    46    24    25 1   
    47    24    49 1   
    48    24    50 1   
    49    25    51 1   
    50    25    52 1   
    51    26    27 1   
    52    26    30 1   
    53    27    28 1   
    54    27    31 1   
    55    28    29 2   
    56    29    53 1   
    57    30    54 1   
    58    30    55 1   
    59    30    56 1   
    60    31    32 1   
    61    31    57 1   
    62    31    58 1   
    63    32    59 1   
    64    32    60 1   
    65    32    61 1   
@<TRIPOS>SUBSTRUCTURE
     1 K47         1 TEMP              0 ****  ****    0 ROOT
