@<TRIPOS>MOLECULE
K47
   61    65     1     0     0
SMALL
abcg2


@<TRIPOS>ATOM
      1 N01          3.9110    -1.8330     0.1470 na         1 K47      -0.266300
      2 C02          3.8280    -0.4810    -0.0920 cc         1 K47       0.515400
      3 N03          2.5910    -0.0440    -0.1050 nd         1 K47      -0.536100
      4 C04          1.8290    -1.1500     0.1320 ca         1 K47      -0.035600
      5 C05          0.4550    -1.3860     0.2230 ca         1 K47       0.413300
      6 N06          0.0170    -2.6110     0.4420 nb         1 K47      -0.302000
      7 C07          0.9010    -3.6020     0.5770 ca         1 K47       0.168900
      8 N08          2.2150    -3.5160     0.5100 nb         1 K47      -0.195000
      9 C09          2.6330    -2.2770     0.2830 ca         1 K47       0.100500
     10 C10          5.0950    -2.6500     0.2970 c3         1 K47       0.065900
     11 C11          4.9950     0.3430    -0.3170 cc         1 K47      -0.263900
     12 O12         -0.3830    -0.3720     0.0800 os         1 K47      -0.424300
     13 C13         -1.7810    -0.6350     0.0670 c5         1 K47       0.160300
     14 C14         -2.4990     0.6060    -0.4470 c5         1 K47       0.098000
     15 N15         -3.8290     0.4590     0.1190 n          1 K47      -0.423800
     16 C16         -3.8720    -0.5450     1.1830 c5         1 K47       0.108000
     17 C17         -2.4040    -0.8600     1.4370 c5         1 K47      -0.118400
     18 C18         -4.8630     1.1840    -0.3470 c          1 K47       0.611100
     19 O19         -4.7000     2.0410    -1.2090 o          1 K47      -0.599100
     20 C20         -6.2370     0.8510     0.2000 c6         1 K47      -0.136700
     21 C21         -7.2050     2.0260     0.1050 c6         1 K47      -0.105400
     22 C22         -8.5870     1.5910     0.5680 c6         1 K47       0.153600
     23 O23         -9.0760     0.4960    -0.1760 os         1 K47      -0.446000
     24 C24         -8.2360    -0.6310    -0.0770 c6         1 K47       0.153600
     25 C25         -6.8270    -0.3410    -0.5690 c6         1 K47      -0.105400
     26 C26          5.1700     1.6690     0.0610 cd         1 K47      -0.067300
     27 N27          6.3740     2.0270    -0.4150 na         1 K47       0.130800
     28 N28          6.9970     1.0410    -1.0640 nd         1 K47      -0.519800
     29 C29          6.1780     0.0160    -1.0130 cc         1 K47       0.263900
     30 C30          4.3100     2.5810     0.8570 c3         1 K47      -0.041800
     31 C31          7.0610     3.2890    -0.2170 c3         1 K47       0.082600
     32 C32          8.0130     3.2470     0.9650 c3         1 K47      -0.112100
     33 H1           0.4850    -4.5850     0.7600 h5         1 K47       0.050100
     34 H2           5.4920    -2.9570    -0.6680 h1         1 K47       0.060033
     35 H3           5.8590    -2.1030     0.8450 h1         1 K47       0.060033
     36 H4           4.8300    -3.5390     0.8630 h1         1 K47       0.060033
     37 H5          -1.9890    -1.4860    -0.5880 h1         1 K47       0.074700
     38 H6          -2.0080     1.5160    -0.0850 h1         1 K47       0.072700
     39 H7          -2.5310     0.6490    -1.5360 h1         1 K47       0.072700
     40 H8          -4.3590    -0.1650     2.0810 h1         1 K47       0.047200
     41 H9          -4.4140    -1.4380     0.8610 h1         1 K47       0.047200
     42 H10         -2.2560    -1.8680     1.8190 hc         1 K47       0.071700
     43 H11         -1.9790    -0.1530     2.1530 hc         1 K47       0.071700
     44 H12         -6.1530     0.5660     1.2530 hc         1 K47       0.054700
     45 H13         -6.8670     2.8610     0.7240 hc         1 K47       0.061950
     46 H14         -7.2600     2.3870    -0.9240 hc         1 K47       0.061950
     47 H15         -8.5560     1.3400     1.6390 h1         1 K47       0.043450
     48 H16         -9.3040     2.4040     0.4460 h1         1 K47       0.043450
     49 H17         -8.1920    -0.9870     0.9630 h1         1 K47       0.043450
     50 H18         -8.6910    -1.4230    -0.6750 h1         1 K47       0.043450
     51 H19         -6.8460    -0.1120    -1.6380 hc         1 K47       0.061950
     52 H20         -6.2170    -1.2390    -0.4440 hc         1 K47       0.061950
     53 H21          6.4370    -0.9110    -1.5010 h4         1 K47       0.039100
     54 H22          4.8140     2.9050     1.7690 hc         1 K47       0.062367
     55 H23          4.0400     3.4750     0.2940 hc         1 K47       0.062367
     56 H24          3.3890     2.0770     1.1380 hc         1 K47       0.062367
     57 H25          7.5950     3.5130    -1.1390 h1         1 K47       0.066700
     58 H26          6.3090     4.0660    -0.0850 h1         1 K47       0.066700
     59 H27          8.5300     4.2020     1.0550 hc         1 K47       0.050033
     60 H28          7.4800     3.0630     1.8980 hc         1 K47       0.050033
     61 H29          8.7610     2.4660     0.8340 hc         1 K47       0.050033
@<TRIPOS>BOND
     1     1     2 1   
     2     1     9 1   
     3     1    10 1   
     4     2     3 2   
     5     2    11 1   
     6     3     4 1   
     7     4     5 ar  
     8     4     9 ar  
     9     5     6 ar  
    10     5    12 1   
    11     6     7 ar  
    12     7     8 ar  
    13     7    33 1   
    14     8     9 ar  
    15    10    34 1   
    16    10    35 1   
    17    10    36 1   
    18    11    26 2   
    19    11    29 1   
    20    12    13 1   
    21    13    14 1   
    22    13    17 1   
    23    13    37 1   
    24    14    15 1   
    25    14    38 1   
    26    14    39 1   
    27    15    16 1   
    28    15    18 1   
    29    16    17 1   
    30    16    40 1   
    31    16    41 1   
    32    17    42 1   
    33    17    43 1   
    34    18    19 2   
    35    18    20 1   
    36    20    21 1   
    37    20    25 1   
    38    20    44 1   
    39    21    22 1   
    40    21    45 1   
    41    21    46 1   
    42    22    23 1   
    43    22    47 1   
    44    22    48 1   
    45    23    24 1   
    46    24    25 1   
    47    24    49 1   
    48    24    50 1   
    49    25    51 1   
    50    25    52 1   
    51    26    27 1   
    52    26    30 1   
    53    27    28 1   
    54    27    31 1   
    55    28    29 2   
    56    29    53 1   
    57    30    54 1   
    58    30    55 1   
    59    30    56 1   
    60    31    32 1   
    61    31    57 1   
    62    31    58 1   
    63    32    59 1   
    64    32    60 1   
    65    32    61 1   
@<TRIPOS>SUBSTRUCTURE
     1 K47         1 TEMP              0 ****  ****    0 ROOT
