@<TRIPOS>MOLECULE
K48
   26    27     1     0     0
SMALL
abcg2


@<TRIPOS>ATOM
      1 C1          20.5370    16.2220    -6.4810 ce         1 K48       0.687800
      2 C2          20.0910    17.6170    -6.4270 cc         1 K48      -0.301900
      3 C3          20.2670    18.5850    -7.3660 cd         1 K48      -0.019000
      4 C4          19.7810    19.8660    -6.9910 cd         1 K48      -0.172000
      5 C5          19.8620    21.0570    -7.8520 ca         1 K48       0.007000
      6 C6          20.3370    22.2770    -7.3640 ca         1 K48      -0.111000
      7 C7          20.4110    23.3920    -8.1870 ca         1 K48      -0.107000
      8 N1          21.4670    15.9050    -7.3000 n2         1 K48      -0.818100
      9 N2          19.9270    15.3870    -5.5780 nv         1 K48      -1.070200
     10 C8          20.0260    23.3060    -9.5180 ca         1 K48      -0.114000
     11 C9          19.5670    22.0940   -10.0200 ca         1 K48      -0.107000
     12 C10         19.4820    20.9830    -9.1940 ca         1 K48      -0.111000
     13 C11         19.2100    19.8450    -5.7340 cc         1 K48       0.205000
     14 S1          19.2950    18.2700    -5.0270 ss         1 K48       0.168000
     15 H1          20.7580    18.3900    -8.3100 ha         1 K48       0.153000
     16 H2          20.6810    22.3530    -6.3390 ha         1 K48       0.111000
     17 H3          20.7820    24.3270    -7.7880 ha         1 K48       0.111500
     18 H4          21.6380    14.9030    -7.2860 hn         1 K48       0.369400
     19 H6          18.9530    15.5490    -5.3760 hn         1 K48       0.456000
     20 H8          18.5620    20.8300    -4.0750 hn         1 K48       0.461500
     21 H7          18.6590    21.7680    -5.4540 hn         1 K48       0.461500
     22 H9          20.0870    24.1740   -10.1620 ha         1 K48       0.112000
     23 H10         19.2670    22.0150   -11.0570 ha         1 K48       0.111500
     24 H11         19.1060    20.0480    -9.5920 ha         1 K48       0.111000
     25 H082        20.1450    14.4060    -5.6580 hn         1 K48       0.456000
     26 N3          18.5370    20.8390    -5.0820 nv         1 K48      -1.051000
@<TRIPOS>BOND
     1     1     2 1   
     2     1     8 2   
     3     1     9 1   
     4     2     3 2   
     5     2    14 1   
     6     3     4 1   
     7     3    15 1   
     8     4     5 1   
     9     4    13 2   
    10     5     6 ar  
    11     5    12 ar  
    12     6     7 ar  
    13     6    16 1   
    14     7    10 ar  
    15     7    17 1   
    16     8    18 1   
    17     9    19 1   
    18     9    25 1   
    19    10    11 ar  
    20    10    22 1   
    21    11    12 ar  
    22    11    23 1   
    23    12    24 1   
    24    13    14 1   
    25    13    26 1   
    26    20    26 1   
    27    21    26 1   
@<TRIPOS>SUBSTRUCTURE
     1 K48         1 TEMP              0 ****  ****    0 ROOT
