@<TRIPOS>MOLECULE
K48
   26    27     1     0     0
SMALL
No Charge or Current Charge


@<TRIPOS>ATOM
      1 C1          20.3780    16.1810    -6.5940 ce         1 K48       0.687800
      2 C2          20.0410    17.5850    -6.4480 cc         1 K48      -0.301900
      3 C3          20.1320    18.5840    -7.3880 cd         1 K48      -0.019000
      4 C4          19.7370    19.8910    -6.9510 cd         1 K48      -0.172000
      5 C5          19.8530    21.0850    -7.8330 ca         1 K48       0.007000
      6 C6          20.0640    22.3890    -7.3230 ca         1 K48      -0.111000
      7 C7          20.1760    23.4940    -8.1850 ca         1 K48      -0.107000
      8 N1          20.8310    15.7190    -7.6820 n2         1 K48      -0.818100
      9 N2          20.2140    15.3370    -5.5610 nv         1 K48      -1.070200
     10 C8          20.0830    23.3190    -9.5730 ca         1 K48      -0.114000
     11 C9          19.8880    22.0340   -10.0990 ca         1 K48      -0.107000
     12 C10         19.7790    20.9280    -9.2370 ca         1 K48      -0.111000
     13 C11         19.3650    19.8810    -5.6180 cc         1 K48       0.205000
     14 S1          19.4660    18.2540    -4.9290 ss         1 K48       0.168000
     15 H1          20.5030    18.3840    -8.3890 ha         1 K48       0.153000
     16 H2          20.1910    22.5600    -6.2600 ha         1 K48       0.111000
     17 H3          20.3450    24.4870    -7.7740 ha         1 K48       0.111500
     18 H4          21.2140    14.7880    -7.4900 hn         1 K48       0.369400
     19 H6          19.6580    15.6970    -4.7950 hn         1 K48       0.456000
     20 H8          18.4450    20.7370    -3.9670 hn         1 K48       0.461500
     21 H7          18.5600    21.7680    -5.3570 hn         1 K48       0.461500
     22 H9          20.1700    24.1750   -10.2400 ha         1 K48       0.112000
     23 H10         19.8160    21.8930   -11.1750 ha         1 K48       0.111500
     24 H11         19.6060    19.9500    -9.6760 ha         1 K48       0.111000
     25 H082        20.0540    14.3650    -5.7950 hn         1 K48       0.456000
     26 N3          18.8650    20.9240    -4.8770 nv         1 K48      -1.051000
@<TRIPOS>BOND
     1     1     2 1   
     2     1     8 2   
     3     1     9 1   
     4     2     3 2   
     5     2    14 1   
     6     3     4 1   
     7     3    15 1   
     8     4     5 1   
     9     4    13 2   
    10     5     6 ar  
    11     5    12 ar  
    12     6     7 ar  
    13     6    16 1   
    14     7    10 ar  
    15     7    17 1   
    16     8    18 1   
    17     9    19 1   
    18     9    25 1   
    19    10    11 ar  
    20    10    22 1   
    21    11    12 ar  
    22    11    23 1   
    23    12    24 1   
    24    13    14 1   
    25    13    26 1   
    26    20    26 1   
    27    21    26 1   
@<TRIPOS>SUBSTRUCTURE
     1 K48         1 TEMP              0 ****  ****    0 ROOT
