@<TRIPOS>MOLECULE
K49
   58    61     1     0     0
SMALL
No Charge or Current Charge


@<TRIPOS>ATOM
      1 N1          26.5430    50.3330    11.5800 ns         1 K49      -0.488900
      2 C4          29.1580    50.0280    10.4450 ca         1 K49      -0.129000
      3 C5          30.4790    49.9340     9.9810 ca         1 K49       0.309900
      4 C7          30.8670    48.0450    11.2520 ca         1 K49       0.325900
      5 C10         27.2850    43.6890    15.9550 ca         1 K49      -0.092000
      6 N12         27.6000    45.5060    14.4010 nb         1 K49      -0.650000
      7 C13         28.9390    45.2100    14.3400 ca         1 K49       0.217500
      8 C15         25.3280    45.1240    15.2230 cx         1 K49      -0.204000
      9 C20         31.0710    41.3170    15.2820 ca         1 K49       0.063400
     10 C22         33.1320    40.4210    15.7540 ca         1 K49       0.086900
     11 C24         33.0190    42.7020    15.5160 ca         1 K49       0.063400
     12 C26         24.5820    45.6520    14.0130 cx         1 K49      -0.101900
     13 C2          29.5540    48.0530    11.7940 ca         1 K49      -0.029000
     14 C3          28.6540    49.0770    11.3720 ca         1 K49      -0.159600
     15 N6          31.3250    48.9610    10.3680 nb         1 K49      -0.637000
     16 C9          28.6520    43.3660    15.9010 ca         1 K49      -0.156000
     17 C11         26.7930    44.7580    15.1850 ca         1 K49       0.359300
     18 C14         29.5080    44.1120    15.0680 ca         1 K49       0.334000
     19 C16         29.8230    46.1090    13.4700 c          1 K49       0.529600
     20 O17         31.0520    46.0210    13.4410 o          1 K49      -0.626100
     21 N18         30.8790    43.7810    15.0080 nu         1 K49      -0.975000
     22 C19         31.6290    42.6180    15.2800 ca         1 K49       0.208000
     23 N21         31.8180    40.2180    15.5220 nb         1 K49      -0.149500
     24 N23         33.7740    41.6090    15.7590 nb         1 K49      -0.149500
     25 C25         24.8440    46.5610    15.1900 cx         1 K49      -0.101900
     26 C27         27.2150    49.1650    11.8670 c          1 K49       0.623700
     27 O28         26.6700    48.2580    12.4770 o          1 K49      -0.597100
     28 C29         25.1160    50.5760    11.8580 c3         1 K49       0.114000
     29 C30         24.1950    50.4700    10.6010 c3         1 K49       0.159000
     30 O31         24.3400    49.1770    10.0050 oh         1 K49      -0.641000
     31 C32         22.7140    50.6310    11.0090 c3         1 K49      -0.123100
     32 C33         24.5780    51.5210     9.5320 c3         1 K49      -0.123100
     33 H1          27.0630    51.0490    11.0910 hn         1 K49       0.316500
     34 H2          28.5450    50.8360    10.0570 ha         1 K49       0.123000
     35 H3          30.8670    50.6590     9.2660 h4         1 K49       0.023100
     36 H4          31.5890    47.2750    11.5090 h4         1 K49       0.046100
     37 H6          24.7640    44.4520    15.8660 hc         1 K49       0.079700
     38 H7          30.0190    41.1420    15.0660 h4         1 K49       0.031600
     39 H8          33.7370    39.5380    15.9500 h5         1 K49       0.054100
     40 H9          33.5370    43.6600    15.5160 h4         1 K49       0.031600
     41 H10         25.1430    45.8370    13.1000 hc         1 K49       0.078700
     42 H11         23.5630    45.3080    13.8550 hc         1 K49       0.078700
     43 H13         29.0350    42.5590    16.5170 ha         1 K49       0.131000
     44 H14         31.4290    44.5380    14.5700 hn         1 K49       0.544000
     45 H15         24.0000    46.8270    15.8220 hc         1 K49       0.078700
     46 H16         25.5800    47.3520    15.0610 hc         1 K49       0.078700
     47 H17         24.7660    49.8690    12.6210 h1         1 K49       0.064700
     48 H18         25.0190    51.5830    12.2860 h1         1 K49       0.064700
     49 H19         23.7600    49.1590     9.2140 ho         1 K49       0.440000
     50 H20         22.0510    50.5450    10.1400 hc         1 K49       0.042533
     51 H21         22.4230    49.8630    11.7360 hc         1 K49       0.042533
     52 H22         22.5430    51.6130    11.4680 hc         1 K49       0.042533
     53 H23         23.9070    51.4650     8.6660 hc         1 K49       0.042533
     54 H24         24.5100    52.5350     9.9450 hc         1 K49       0.042533
     55 H25         25.6030    51.3690     9.1730 hc         1 K49       0.042533
     56 N8          29.1280    47.0620    12.7330 ns         1 K49      -0.125000
     57 H5          26.6140    43.1190    16.5910 ha         1 K49       0.127000
     58 H12         28.1260    47.0510    12.9000 hn         1 K49       0.218000
@<TRIPOS>BOND
     1     1    26 1   
     2     1    28 1   
     3     1    33 1   
     4     2     3 ar  
     5     2    14 ar  
     6     2    34 1   
     7     3    15 ar  
     8     3    35 1   
     9     4    13 ar  
    10     4    15 ar  
    11     4    36 1   
    12     5    16 ar  
    13     5    17 ar  
    14     5    57 1   
    15     6     7 ar  
    16     6    17 ar  
    17     7    18 ar  
    18     7    19 1   
    19     8    12 1   
    20     8    17 1   
    21     8    25 1   
    22     8    37 1   
    23     9    22 ar  
    24     9    23 ar  
    25     9    38 1   
    26    10    23 ar  
    27    10    24 ar  
    28    10    39 1   
    29    11    22 ar  
    30    11    24 ar  
    31    11    40 1   
    32    12    25 1   
    33    12    41 1   
    34    12    42 1   
    35    13    14 ar  
    36    13    56 1   
    37    14    26 1   
    38    16    18 ar  
    39    16    43 1   
    40    18    21 1   
    41    19    20 2   
    42    19    56 1   
    43    21    22 1   
    44    21    44 1   
    45    25    45 1   
    46    25    46 1   
    47    26    27 2   
    48    28    29 1   
    49    28    47 1   
    50    28    48 1   
    51    29    30 1   
    52    29    31 1   
    53    29    32 1   
    54    30    49 1   
    55    31    50 1   
    56    31    51 1   
    57    31    52 1   
    58    32    53 1   
    59    32    54 1   
    60    32    55 1   
    61    56    58 1   
@<TRIPOS>SUBSTRUCTURE
     1 K49         1 TEMP              0 ****  ****    0 ROOT
