@<TRIPOS>MOLECULE
K49
   58    61     1     0     0
SMALL
abcg2


@<TRIPOS>ATOM
      1 N1          26.7490    49.9800    11.7490 ns         1 K49      -0.488900
      2 C4          28.8150    49.3840     9.7860 ca         1 K49      -0.129000
      3 C5          30.0300    49.1510     9.1680 ca         1 K49       0.309900
      4 C7          30.3930    47.2770    10.4140 ca         1 K49       0.325900
      5 C10         27.2770    43.6910    15.7310 ca         1 K49      -0.092000
      6 N12         27.4900    45.1360    13.8890 nb         1 K49      -0.650000
      7 C13         28.8170    45.0580    13.9660 ca         1 K49       0.217500
      8 C15         25.2420    44.5800    14.5740 cx         1 K49      -0.204000
      9 C20         31.2740    41.9230    15.8310 ca         1 K49       0.063400
     10 C22         33.2340    41.5310    16.8910 ca         1 K49       0.086900
     11 C24         32.8680    43.6300    16.1510 ca         1 K49       0.063400
     12 C26         24.6180    44.7430    13.2140 cx         1 K49      -0.101900
     13 C2          29.1890    47.4220    11.1070 ca         1 K49      -0.029000
     14 C3          28.3790    48.5180    10.7800 ca         1 K49      -0.159600
     15 N6          30.8020    48.1180     9.4770 nb         1 K49      -0.637000
     16 C9          28.6410    43.5940    15.8370 ca         1 K49      -0.156000
     17 C11         26.7100    44.4750    14.7180 ca         1 K49       0.359300
     18 C14         29.4740    44.2670    14.9280 ca         1 K49       0.334000
     19 C16         29.5710    45.8880    12.9800 c          1 K49       0.529600
     20 O17         30.7910    45.9950    13.0070 o          1 K49      -0.626100
     21 N18         30.8420    44.2000    14.9980 nu         1 K49      -0.975000
     22 C19         31.6130    43.2650    15.6600 ca         1 K49       0.208000
     23 N21         32.0740    41.0700    16.4510 nb         1 K49      -0.149500
     24 N23         33.6730    42.7730    16.7550 nb         1 K49      -0.149500
     25 C25         24.6030    45.8820    14.1720 cx         1 K49      -0.101900
     26 C27         27.0460    48.7150    11.4350 c          1 K49       0.623700
     27 O28         26.3180    47.7560    11.6610 o          1 K49      -0.597100
     28 C29         25.4910    50.4030    12.3180 c3         1 K49       0.114000
     29 C30         24.4860    50.9280    11.2860 c3         1 K49       0.159000
     30 O31         24.2070    49.8430    10.4210 oh         1 K49      -0.641000
     31 C32         23.2260    51.3640    12.0320 c3         1 K49      -0.123100
     32 C33         25.0690    52.1030    10.5030 c3         1 K49      -0.123100
     33 H1          27.4470    50.6890    11.5890 hn         1 K49       0.316500
     34 H2          28.2110    50.2270     9.4760 ha         1 K49       0.123000
     35 H3          30.3850    49.8150     8.3890 h4         1 K49       0.023100
     36 H4          31.0420    46.4370    10.6170 h4         1 K49       0.046100
     37 H6          24.6890    43.9760    15.2840 hc         1 K49       0.079700
     38 H7          30.3420    41.5230    15.4460 h4         1 K49       0.031600
     39 H8          33.8850    40.8290    17.3990 h5         1 K49       0.054100
     40 H9          33.2200    44.6510    16.0350 h4         1 K49       0.031600
     41 H10         25.2900    44.8030    12.3670 hc         1 K49       0.078700
     42 H11         23.6960    44.2100    13.0230 hc         1 K49       0.078700
     43 H13         29.0640    43.0120    16.6440 ha         1 K49       0.131000
     44 H14         31.3290    44.8990    14.4480 hn         1 K49       0.544000
     45 H15         23.6690    46.1450    14.6520 hc         1 K49       0.078700
     46 H16         25.2620    46.7170    13.9720 hc         1 K49       0.078700
     47 H17         25.0530    49.5660    12.8640 h1         1 K49       0.064700
     48 H18         25.6960    51.1910    13.0430 h1         1 K49       0.064700
     49 H19         23.6200    50.1580     9.7240 ho         1 K49       0.440000
     50 H20         22.4700    51.7250    11.3320 hc         1 K49       0.042533
     51 H21         22.7960    50.5330    12.5950 hc         1 K49       0.042533
     52 H22         23.4380    52.1720    12.7330 hc         1 K49       0.042533
     53 H23         24.3380    52.4880     9.7890 hc         1 K49       0.042533
     54 H24         25.3410    52.9250    11.1660 hc         1 K49       0.042533
     55 H25         25.9580    51.8100     9.9420 hc         1 K49       0.042533
     56 N8          28.7790    46.5120    12.0790 ns         1 K49      -0.125000
     57 H5          26.6430    43.1730    16.4380 ha         1 K49       0.127000
     58 H12         27.7800    46.4220    12.2340 hn         1 K49       0.218000
@<TRIPOS>BOND
     1     1    26 1   
     2     1    28 1   
     3     1    33 1   
     4     2     3 ar  
     5     2    14 ar  
     6     2    34 1   
     7     3    15 ar  
     8     3    35 1   
     9     4    13 ar  
    10     4    15 ar  
    11     4    36 1   
    12     5    16 ar  
    13     5    17 ar  
    14     5    57 1   
    15     6     7 ar  
    16     6    17 ar  
    17     7    18 ar  
    18     7    19 1   
    19     8    12 1   
    20     8    17 1   
    21     8    25 1   
    22     8    37 1   
    23     9    22 ar  
    24     9    23 ar  
    25     9    38 1   
    26    10    23 ar  
    27    10    24 ar  
    28    10    39 1   
    29    11    22 ar  
    30    11    24 ar  
    31    11    40 1   
    32    12    25 1   
    33    12    41 1   
    34    12    42 1   
    35    13    14 ar  
    36    13    56 1   
    37    14    26 1   
    38    16    18 ar  
    39    16    43 1   
    40    18    21 1   
    41    19    20 2   
    42    19    56 1   
    43    21    22 1   
    44    21    44 1   
    45    25    45 1   
    46    25    46 1   
    47    26    27 2   
    48    28    29 1   
    49    28    47 1   
    50    28    48 1   
    51    29    30 1   
    52    29    31 1   
    53    29    32 1   
    54    30    49 1   
    55    31    50 1   
    56    31    51 1   
    57    31    52 1   
    58    32    53 1   
    59    32    54 1   
    60    32    55 1   
    61    56    58 1   
@<TRIPOS>SUBSTRUCTURE
     1 K49         1 TEMP              0 ****  ****    0 ROOT
