@<TRIPOS>MOLECULE
K4A
   60    65     1     0     0
SMALL
No Charge or Current Charge


@<TRIPOS>ATOM
      1 N01          4.2910    -1.5530    -0.7240 na         1 K4A      -0.269300
      2 C02          3.7350    -0.3670    -0.2080 cc         1 K4A       0.512400
      3 N03          2.3970    -0.4780    -0.1460 nd         1 K4A      -0.577100
      4 C04          2.1170    -1.7600    -0.6390 ca         1 K4A      -0.073600
      5 C05          0.8710    -2.4330    -0.7970 ca         1 K4A       0.455900
      6 N06          0.8500    -3.6980    -1.2730 nb         1 K4A      -0.307000
      7 C07          2.0410    -4.2570    -1.5840 ca         1 K4A       0.179900
      8 N08          3.2580    -3.6840    -1.4670 nb         1 K4A      -0.220000
      9 C09          3.2690    -2.4250    -0.9870 ca         1 K4A       0.117500
     10 C10          5.6960    -1.9190    -0.9890 c3         1 K4A       0.066900
     11 C11          4.5020     0.7940     0.1930 cc         1 K4A      -0.251900
     12 N12         -0.3980    -1.8770    -0.4820 nh         1 K4A      -0.764300
     13 C13         -0.6060    -0.4000    -0.4840 c6         1 K4A       0.218300
     14 C14         -2.0740    -0.0380    -0.8030 c6         1 K4A      -0.118900
     15 C15         -3.0460    -0.7660     0.1490 c6         1 K4A       0.139700
     16 C16         -2.8040    -2.2920     0.0550 c6         1 K4A      -0.118900
     17 C17         -1.3370    -2.6280     0.4020 c6         1 K4A       0.218300
     18 N18         -4.4450    -0.3290    -0.0900 n          1 K4A      -0.293000
     19 C19         -5.4500    -1.0040    -0.8280 c          1 K4A       0.599000
     20 N20         -6.5980    -0.3350    -0.5210 ns         1 K4A      -0.586900
     21 C21         -6.3960     0.7040     0.3480 ca         1 K4A       0.419900
     22 N22         -7.3200     1.6230     0.6360 nb         1 K4A      -0.666000
     23 C23         -6.8370     2.6820     1.3430 ca         1 K4A       0.334900
     24 C24         -5.4620     2.8420     1.6730 ca         1 K4A      -0.166000
     25 C25         -4.5200     1.8580     1.2880 ca         1 K4A      -0.081000
     26 C26         -5.0530     0.7250     0.6630 ca         1 K4A      -0.035400
     27 O27         -5.3550    -1.9600    -1.5760 o          1 K4A      -0.548000
     28 C28          3.9790     1.9600     0.6950 cd         1 K4A      -0.076300
     29 N29          5.1030     2.7740     0.9310 na         1 K4A       0.129800
     30 N30          6.2950     2.1500     0.5950 nd         1 K4A      -0.520800
     31 C31          5.8950     0.9760     0.1600 cc         1 K4A       0.263900
     32 C32          2.5440     2.3640     0.9650 c3         1 K4A      -0.036800
     33 C33          5.1150     4.1450     1.4780 c3         1 K4A       0.082600
     34 C34          4.9980     4.1870     3.0150 c3         1 K4A      -0.113100
     35 H1           2.0170    -5.2750    -1.9690 h5         1 K4A       0.044100
     36 H2           6.1310    -1.2170    -1.7120 h1         1 K4A       0.058367
     37 H3           6.2670    -1.8950    -0.0530 h1         1 K4A       0.058367
     38 H4           5.7620    -2.9310    -1.4080 h1         1 K4A       0.058367
     39 H5          -0.3290     0.0230     0.4940 h1         1 K4A       0.069700
     40 H6           0.0330     0.0780    -1.2420 h1         1 K4A       0.069700
     41 H7          -2.2080     1.0480    -0.7230 hc         1 K4A       0.070950
     42 H8          -2.3010    -0.3070    -1.8440 hc         1 K4A       0.070950
     43 H9          -2.7910    -0.4640     1.1750 h1         1 K4A       0.049700
     44 H10         -3.4780    -2.8260     0.7370 hc         1 K4A       0.070950
     45 H11         -3.0090    -2.6580    -0.9580 hc         1 K4A       0.070950
     46 H12         -1.1990    -3.7150     0.3020 h1         1 K4A       0.069700
     47 H13         -1.1440    -2.3770     1.4560 h1         1 K4A       0.069700
     48 H14         -7.4970    -0.5500    -0.9280 hn         1 K4A       0.479000
     49 H15         -7.5610     3.4480     1.6180 h4         1 K4A       0.025100
     50 H16         -5.1370     3.7380     2.1930 ha         1 K4A       0.126000
     51 H17         -3.4530     1.9780     1.4630 ha         1 K4A       0.127000
     52 H18          6.6600     0.2900    -0.1690 h4         1 K4A       0.039100
     53 H19          2.4600     3.3750     1.3760 hc         1 K4A       0.058700
     54 H20          1.9510     2.3380     0.0440 hc         1 K4A       0.058700
     55 H21          2.0760     1.6820     1.6850 hc         1 K4A       0.058700
     56 H22          6.0510     4.6330     1.1770 h1         1 K4A       0.065700
     57 H23          4.2920     4.7130     1.0290 h1         1 K4A       0.065700
     58 H24          5.8340     3.6490     3.4790 hc         1 K4A       0.049700
     59 H25          5.0160     5.2240     3.3700 hc         1 K4A       0.049700
     60 H26          4.0610     3.7250     3.3480 hc         1 K4A       0.049700
@<TRIPOS>BOND
     1     1     2 1   
     2     1     9 1   
     3     1    10 1   
     4     2     3 2   
     5     2    11 1   
     6     3     4 1   
     7     4     5 ar  
     8     4     9 ar  
     9     5     6 ar  
    10     5    12 1   
    11     6     7 ar  
    12     7     8 ar  
    13     7    35 1   
    14     8     9 ar  
    15    10    36 1   
    16    10    37 1   
    17    10    38 1   
    18    11    28 2   
    19    11    31 1   
    20    12    13 1   
    21    12    17 1   
    22    13    14 1   
    23    13    39 1   
    24    13    40 1   
    25    14    15 1   
    26    14    41 1   
    27    14    42 1   
    28    15    16 1   
    29    15    18 1   
    30    15    43 1   
    31    16    17 1   
    32    16    44 1   
    33    16    45 1   
    34    17    46 1   
    35    17    47 1   
    36    18    19 1   
    37    18    26 1   
    38    19    20 1   
    39    19    27 2   
    40    20    21 1   
    41    20    48 1   
    42    21    22 ar  
    43    21    26 ar  
    44    22    23 ar  
    45    23    24 ar  
    46    23    49 1   
    47    24    25 ar  
    48    24    50 1   
    49    25    26 ar  
    50    25    51 1   
    51    28    29 1   
    52    28    32 1   
    53    29    30 1   
    54    29    33 1   
    55    30    31 2   
    56    31    52 1   
    57    32    53 1   
    58    32    54 1   
    59    32    55 1   
    60    33    34 1   
    61    33    56 1   
    62    33    57 1   
    63    34    58 1   
    64    34    59 1   
    65    34    60 1   
@<TRIPOS>SUBSTRUCTURE
     1 K4A         1 TEMP              0 ****  ****    0 ROOT
