@<TRIPOS>MOLECULE
K4A
   60    65     1     0     0
SMALL
abcg2


@<TRIPOS>ATOM
      1 N01          3.8330    -1.5330    -0.6380 na         1 K4A      -0.269300
      2 C02          3.4140    -0.2950    -0.2200 cc         1 K4A       0.512400
      3 N03          2.1890    -0.3160     0.2420 nd         1 K4A      -0.577100
      4 C04          1.7760    -1.6170     0.1330 ca         1 K4A      -0.073600
      5 C05          0.5820    -2.3080     0.4570 ca         1 K4A       0.455900
      6 N06          0.5490    -3.6200     0.1810 nb         1 K4A      -0.307000
      7 C07          1.6020    -4.2220    -0.3560 ca         1 K4A       0.179900
      8 N08          2.7620    -3.6890    -0.6920 nb         1 K4A      -0.220000
      9 C09          2.7930    -2.3860    -0.4260 ca         1 K4A       0.117500
     10 C10          5.1280    -1.9210    -1.1520 c3         1 K4A       0.066900
     11 C11          4.2420     0.8890    -0.2830 cc         1 K4A      -0.251900
     12 N12         -0.5000    -1.7570     1.0380 nh         1 K4A      -0.764300
     13 C13         -0.6630    -0.3340     1.2760 c6         1 K4A       0.218300
     14 C14         -1.7120     0.2530     0.3370 c6         1 K4A      -0.118900
     15 C15         -3.0250    -0.5120     0.4880 c6         1 K4A       0.139700
     16 C16         -2.8210    -2.0140     0.3030 c6         1 K4A      -0.118900
     17 C17         -1.7270    -2.5080     1.2440 c6         1 K4A       0.218300
     18 N18         -4.0840     0.0150    -0.3590 n          1 K4A      -0.293000
     19 C19         -4.0680     0.0340    -1.7400 c          1 K4A       0.599000
     20 N20         -5.2580     0.6040    -2.1260 ns         1 K4A      -0.586900
     21 C21         -6.0140     0.9340    -1.0320 ca         1 K4A       0.419900
     22 N22         -7.1970     1.4900    -1.0180 nb         1 K4A      -0.666000
     23 C23         -7.7130     1.7050     0.1990 ca         1 K4A       0.334900
     24 C24         -7.0660     1.3740     1.3780 ca         1 K4A      -0.166000
     25 C25         -5.8000     0.7810     1.3440 ca         1 K4A      -0.081000
     26 C26         -5.2670     0.5590     0.0950 ca         1 K4A      -0.035400
     27 O27         -3.1840    -0.3690    -2.4710 o          1 K4A      -0.548000
     28 C28          4.1610     1.9950     0.5560 cd         1 K4A      -0.076300
     29 N29          5.0740     2.8690     0.0990 na         1 K4A       0.129800
     30 N30          5.7470     2.4170    -0.9610 nd         1 K4A      -0.520800
     31 C31          5.2550     1.2240    -1.2060 cc         1 K4A       0.263900
     32 C32          3.3000     2.2680     1.7360 c3         1 K4A      -0.036800
     33 C33          5.4370     4.1490     0.6760 c3         1 K4A       0.082600
     34 C34          6.5980     4.0350     1.6500 c3         1 K4A      -0.113100
     35 H1           1.4880    -5.2850    -0.5400 h5         1 K4A       0.044100
     36 H2           5.2330    -1.6620    -2.2040 h1         1 K4A       0.058367
     37 H3           5.9190    -1.4400    -0.5820 h1         1 K4A       0.058367
     38 H4           5.2300    -2.9980    -1.0490 h1         1 K4A       0.058367
     39 H5          -0.9820    -0.2000     2.3160 h1         1 K4A       0.069700
     40 H6           0.2820     0.1850     1.1560 h1         1 K4A       0.069700
     41 H7          -1.8650     1.3060     0.5830 hc         1 K4A       0.070950
     42 H8          -1.3510     0.2000    -0.6910 hc         1 K4A       0.070950
     43 H9          -3.3720    -0.3540     1.5130 h1         1 K4A       0.049700
     44 H10         -3.7500    -2.5450     0.5180 hc         1 K4A       0.070950
     45 H11         -2.5400    -2.2370    -0.7280 hc         1 K4A       0.070950
     46 H12         -1.5380    -3.5650     1.0890 h1         1 K4A       0.069700
     47 H13         -2.0380    -2.3740     2.2850 h1         1 K4A       0.069700
     48 H14         -5.5260     0.7330    -3.0890 hn         1 K4A       0.479000
     49 H15         -8.6920     2.1670     0.2280 h4         1 K4A       0.025100
     50 H16         -7.5440     1.5750     2.3260 ha         1 K4A       0.126000
     51 H17         -5.2840     0.5200     2.2580 ha         1 K4A       0.127000
     52 H18          5.6180     0.6540    -2.0470 h4         1 K4A       0.039100
     53 H19          3.8710     2.6850     2.5650 hc         1 K4A       0.058700
     54 H20          2.5060     2.9770     1.4920 hc         1 K4A       0.058700
     55 H21          2.8250     1.3520     2.0750 hc         1 K4A       0.058700
     56 H22          5.6870     4.8140    -0.1490 h1         1 K4A       0.065700
     57 H23          4.5570     4.5630     1.1660 h1         1 K4A       0.065700
     58 H24          7.4810     3.6270     1.1580 hc         1 K4A       0.049700
     59 H25          6.8510     5.0210     2.0370 hc         1 K4A       0.049700
     60 H26          6.3490     3.3940     2.4950 hc         1 K4A       0.049700
@<TRIPOS>BOND
     1     1     2 1   
     2     1     9 1   
     3     1    10 1   
     4     2     3 2   
     5     2    11 1   
     6     3     4 1   
     7     4     5 ar  
     8     4     9 ar  
     9     5     6 ar  
    10     5    12 1   
    11     6     7 ar  
    12     7     8 ar  
    13     7    35 1   
    14     8     9 ar  
    15    10    36 1   
    16    10    37 1   
    17    10    38 1   
    18    11    28 2   
    19    11    31 1   
    20    12    13 1   
    21    12    17 1   
    22    13    14 1   
    23    13    39 1   
    24    13    40 1   
    25    14    15 1   
    26    14    41 1   
    27    14    42 1   
    28    15    16 1   
    29    15    18 1   
    30    15    43 1   
    31    16    17 1   
    32    16    44 1   
    33    16    45 1   
    34    17    46 1   
    35    17    47 1   
    36    18    19 1   
    37    18    26 1   
    38    19    20 1   
    39    19    27 2   
    40    20    21 1   
    41    20    48 1   
    42    21    22 ar  
    43    21    26 ar  
    44    22    23 ar  
    45    23    24 ar  
    46    23    49 1   
    47    24    25 ar  
    48    24    50 1   
    49    25    26 ar  
    50    25    51 1   
    51    28    29 1   
    52    28    32 1   
    53    29    30 1   
    54    29    33 1   
    55    30    31 2   
    56    31    52 1   
    57    32    53 1   
    58    32    54 1   
    59    32    55 1   
    60    33    34 1   
    61    33    56 1   
    62    33    57 1   
    63    34    58 1   
    64    34    59 1   
    65    34    60 1   
@<TRIPOS>SUBSTRUCTURE
     1 K4A         1 TEMP              0 ****  ****    0 ROOT
