@<TRIPOS>MOLECULE
K4B
   43    45     1     0     0
SMALL
abcg2


@<TRIPOS>ATOM
      1 C1          -2.9930     6.5930    14.0490 c5         1 K4B       0.342200
      2 C2          -2.2260     8.7800    14.7040 c3         1 K4B       0.220100
      3 C3          -1.1920     9.8460    14.4570 ca         1 K4B      -0.094300
      4 C4          -1.5520    11.1880    14.3980 ca         1 K4B      -0.095500
      5 C5          -0.5920    12.1730    14.1910 ca         1 K4B      -0.113500
      6 C6           0.7410    11.8220    14.0350 ca         1 K4B      -0.105000
      7 O1          -4.7900     1.7310    18.4090 o          1 K4B      -0.543000
      8 O2          -7.0470     1.6310    17.3360 o          1 K4B      -0.543000
      9 N2          -5.1770    -0.0640    16.7400 n8         1 K4B      -1.004100
     10 C14         -5.0320     2.4240    15.8710 ca         1 K4B      -0.257500
     11 C13         -5.9420     2.9210    14.9510 ca         1 K4B      -0.015500
     12 C12         -5.4760     3.6720    13.8830 ca         1 K4B      -0.102000
     13 C15         -3.6710     2.6720    15.7510 ca         1 K4B      -0.015500
     14 C16         -3.2200     3.4410    14.6930 ca         1 K4B      -0.102000
     15 C11         -4.1200     3.9450    13.7580 ca         1 K4B      -0.087600
     16 C           -3.6430     4.7020    12.5560 c          1 K4B       0.613700
     17 O           -3.8010     4.2340    11.4370 o          1 K4B      -0.586100
     18 N           -3.0550     5.8820    12.7780 n          1 K4B      -0.411800
     19 C10         -2.6070     6.7400    11.6870 c5         1 K4B       0.097000
     20 C9          -2.4860     8.0900    12.3740 c5         1 K4B       0.141800
     21 N1          -2.1400     7.7150    13.7330 n3         1 K4B      -0.729600
     22 C8           0.1500     9.5030    14.2980 ca         1 K4B      -0.095500
     23 C7           1.1090    10.4820    14.0890 ca         1 K4B      -0.113500
     24 H1          -4.0050     6.8950    14.3650 h2         1 K4B       0.044700
     25 H2          -2.5520     5.9940    14.8470 h2         1 K4B       0.044700
     26 H3          -3.2290     9.2380    14.7200 h1         1 K4B       0.042700
     27 H4          -2.0680     8.3460    15.6960 h1         1 K4B       0.042700
     28 H5          -2.5920    11.4690    14.5130 ha         1 K4B       0.117000
     29 H6          -0.8890    13.2130    14.1470 ha         1 K4B       0.113500
     30 H7           1.4900    12.5860    13.8720 ha         1 K4B       0.113000
     31 H8          -5.1340    -0.7140    17.5200 hn         1 K4B       0.475500
     32 H9          -5.7850    -0.4260    16.0120 hn         1 K4B       0.475500
     33 H10         -7.0010     2.7270    15.0520 ha         1 K4B       0.140500
     34 H11         -6.1800     4.0520    13.1540 ha         1 K4B       0.130000
     35 H12         -2.9650     2.2760    16.4680 ha         1 K4B       0.140500
     36 H13         -2.1590     3.6350    14.5930 ha         1 K4B       0.130000
     37 H14         -3.3250     6.7530    10.8690 h1         1 K4B       0.065200
     38 H15         -1.6470     6.3940    11.2980 h1         1 K4B       0.065200
     39 H16         -1.7170     8.7170    11.9240 h1         1 K4B       0.053200
     40 H17         -3.4410     8.6360    12.3260 h1         1 K4B       0.053200
     41 H19          0.4420     8.4600    14.3320 ha         1 K4B       0.117000
     42 H20          2.1480    10.2020    13.9680 ha         1 K4B       0.113500
     43 S           -5.6050     1.4500    17.2360 sy         1 K4B       1.124600
@<TRIPOS>BOND
     1     1    18 1   
     2     1    21 1   
     3     1    24 1   
     4     1    25 1   
     5     2     3 1   
     6     2    21 1   
     7     2    26 1   
     8     2    27 1   
     9     3     4 ar  
    10     3    22 ar  
    11     4     5 ar  
    12     4    28 1   
    13     5     6 ar  
    14     5    29 1   
    15     6    23 ar  
    16     6    30 1   
    17     7    43 2   
    18     8    43 2   
    19     9    31 1   
    20     9    32 1   
    21     9    43 1   
    22    10    11 ar  
    23    10    13 ar  
    24    10    43 1   
    25    11    12 ar  
    26    11    33 1   
    27    12    15 ar  
    28    12    34 1   
    29    13    14 ar  
    30    13    35 1   
    31    14    15 ar  
    32    14    36 1   
    33    15    16 1   
    34    16    17 2   
    35    16    18 1   
    36    18    19 1   
    37    19    20 1   
    38    19    37 1   
    39    19    38 1   
    40    20    21 1   
    41    20    39 1   
    42    20    40 1   
    43    22    23 ar  
    44    22    41 1   
    45    23    42 1   
@<TRIPOS>SUBSTRUCTURE
     1 K4B         1 TEMP              0 ****  ****    0 ROOT
