@<TRIPOS>MOLECULE
K4B
   43    45     1     0     0
SMALL
No Charge or Current Charge


@<TRIPOS>ATOM
      1 C1          -3.4250     6.8680    14.0480 c5         1 K4B       0.342200
      2 C2          -2.2450     8.9400    14.7670 c3         1 K4B       0.220100
      3 C3          -1.0750     9.8770    14.4850 ca         1 K4B      -0.094300
      4 C4          -1.3030    11.1780    13.9920 ca         1 K4B      -0.095500
      5 C5          -0.2200    12.0370    13.7320 ca         1 K4B      -0.113500
      6 C6           1.0950    11.6020    13.9640 ca         1 K4B      -0.105000
      7 O1          -4.5640     1.5230    18.5100 o          1 K4B      -0.543000
      8 O2          -6.7740     0.8650    17.3770 o          1 K4B      -0.543000
      9 N2          -4.6840    -0.2580    16.8140 n8         1 K4B      -1.004100
     10 C14         -4.9780     2.2520    15.9580 ca         1 K4B      -0.257500
     11 C13         -5.9160     2.4380    14.9220 ca         1 K4B      -0.015500
     12 C12         -5.6220     3.3000    13.8520 ca         1 K4B      -0.102000
     13 C15         -3.7410     2.9260    15.9040 ca         1 K4B      -0.015500
     14 C16         -3.4530     3.7870    14.8320 ca         1 K4B      -0.102000
     15 C11         -4.3990     4.0030    13.8040 ca         1 K4B      -0.087600
     16 C           -4.1040     4.9070    12.6240 c          1 K4B       0.613700
     17 O           -4.4710     4.5980    11.4950 o          1 K4B      -0.586100
     18 N           -3.3180     6.0550    12.8280 n          1 K4B      -0.411800
     19 C10         -2.8120     6.8680    11.6960 c5         1 K4B       0.097000
     20 C9          -2.5520     8.2350    12.3800 c5         1 K4B       0.141800
     21 N1          -2.3430     7.8350    13.7920 n3         1 K4B      -0.729600
     22 C8           0.2470     9.4470    14.7140 ca         1 K4B      -0.095500
     23 C7           1.3290    10.3060    14.4550 ca         1 K4B      -0.113500
     24 H1          -4.4200     7.3320    14.0500 h2         1 K4B       0.044700
     25 H2          -3.2330     6.2570    14.9350 h2         1 K4B       0.044700
     26 H3          -3.1790     9.5200    14.7740 h1         1 K4B       0.042700
     27 H4          -2.1200     8.5290    15.7780 h1         1 K4B       0.042700
     28 H5          -2.3180    11.5220    13.8070 ha         1 K4B       0.117000
     29 H6          -0.4020    13.0400    13.3510 ha         1 K4B       0.113500
     30 H7           1.9330    12.2670    13.7630 ha         1 K4B       0.113000
     31 H8          -5.4640    -0.8960    16.9490 hn         1 K4B       0.475500
     32 H9          -4.6490    -0.1270    15.8060 hn         1 K4B       0.475500
     33 H10         -6.8740     1.9190    14.9390 ha         1 K4B       0.140500
     34 H11         -6.3560     3.4310    13.0590 ha         1 K4B       0.130000
     35 H12         -2.9960     2.7770    16.6850 ha         1 K4B       0.140500
     36 H13         -2.4770     4.2660    14.7920 ha         1 K4B       0.130000
     37 H14         -3.5350     6.9570    10.8740 h1         1 K4B       0.065200
     38 H15         -1.8820     6.4380    11.3020 h1         1 K4B       0.065200
     39 H16         -1.6840     8.7530    11.9500 h1         1 K4B       0.053200
     40 H17         -3.4270     8.8930    12.2790 h1         1 K4B       0.053200
     41 H19          0.4330     8.4430    15.0890 ha         1 K4B       0.117000
     42 H20          2.3470     9.9670    14.6330 ha         1 K4B       0.113500
     43 S           -5.3420     1.1490    17.3290 sy         1 K4B       1.124600
@<TRIPOS>BOND
     1     1    18 1   
     2     1    21 1   
     3     1    24 1   
     4     1    25 1   
     5     2     3 1   
     6     2    21 1   
     7     2    26 1   
     8     2    27 1   
     9     3     4 ar  
    10     3    22 ar  
    11     4     5 ar  
    12     4    28 1   
    13     5     6 ar  
    14     5    29 1   
    15     6    23 ar  
    16     6    30 1   
    17     7    43 2   
    18     8    43 2   
    19     9    31 1   
    20     9    32 1   
    21     9    43 1   
    22    10    11 ar  
    23    10    13 ar  
    24    10    43 1   
    25    11    12 ar  
    26    11    33 1   
    27    12    15 ar  
    28    12    34 1   
    29    13    14 ar  
    30    13    35 1   
    31    14    15 ar  
    32    14    36 1   
    33    15    16 1   
    34    16    17 2   
    35    16    18 1   
    36    18    19 1   
    37    19    20 1   
    38    19    37 1   
    39    19    38 1   
    40    20    21 1   
    41    20    39 1   
    42    20    40 1   
    43    22    23 ar  
    44    22    41 1   
    45    23    42 1   
@<TRIPOS>SUBSTRUCTURE
     1 K4B         1 TEMP              0 ****  ****    0 ROOT
