@<TRIPOS>MOLECULE
K4D
   48    49     1     0     0
SMALL
abcg2


@<TRIPOS>ATOM
      1 C10          1.4720    -0.1080     0.4510 c          1 K4D       0.624700
      2 N12          1.8930    -0.9280    -0.5270 ns         1 K4D      -0.509900
      3 C13          3.1780    -1.5920    -0.5460 c3         1 K4D       0.098000
      4 C15          4.4440    -3.7440    -0.6130 c6         1 K4D      -0.072400
      5 C17          3.5720    -5.6830     0.7120 c6         1 K4D      -0.077400
      6 C20         -0.0840     1.8380     0.1020 ca         1 K4D       0.148100
      7 C22          0.9060     3.9820     0.0120 c3         1 K4D       0.087600
      8 C28         -2.4600     1.4800    -0.1170 ca         1 K4D      -0.141000
      9 C02         -5.4910    -1.5410     0.0750 c3         1 K4D       0.310000
     10 C05         -4.5970    -0.3330    -0.0740 c3         1 K4D       0.088600
     11 C07         -2.2790     0.1130     0.0040 ca         1 K4D       0.101100
     12 C08         -0.9890    -0.3930     0.1570 ca         1 K4D      -0.078000
     13 C09          0.1010     0.4550     0.2160 ca         1 K4D      -0.140600
     14 C14          3.0590    -3.1110    -0.5330 c6         1 K4D       0.155500
     15 C16          4.3600    -5.2640    -0.5240 c6         1 K4D      -0.073400
     16 C18          2.2180    -4.9900     0.7340 c6         1 K4D       0.160800
     17 C23          2.2980     4.5540     0.1400 c3         1 K4D       0.312000
     18 C27         -1.3630     2.3380    -0.0720 ca         1 K4D      -0.164000
     19 F01         -5.3060    -2.4320    -0.9030 f          1 K4D      -0.106000
     20 F03         -5.2870    -2.1800     1.2310 f          1 K4D      -0.106000
     21 F04         -6.7750    -1.1660     0.0430 f          1 K4D      -0.106000
     22 F24          2.8490     4.2810     1.3260 f          1 K4D      -0.105000
     23 F25          3.1270     4.0820    -0.7960 f          1 K4D      -0.105000
     24 F26          2.2590     5.8850     0.0100 f          1 K4D      -0.105000
     25 N19          2.3950    -3.5470     0.6820 n7         1 K4D      -0.853400
     26 O11          2.1060     0.1590     1.4570 o          1 K4D      -0.559100
     27 O21          1.0350     2.5940     0.1450 os         1 K4D      -0.312100
     28 H1           1.3190    -1.0090    -1.3510 hn         1 K4D       0.310500
     29 H2           3.7220    -1.2810    -1.4410 h1         1 K4D       0.066200
     30 H3           3.7470    -1.2590     0.3210 h1         1 K4D       0.066200
     31 H4           4.9290    -3.4420    -1.5450 hc         1 K4D       0.047700
     32 H5           5.0580    -3.3590     0.2090 hc         1 K4D       0.047700
     33 H6           3.4330    -6.7660     0.7330 hc         1 K4D       0.048200
     34 H7           4.1280    -5.4120     1.6140 hc         1 K4D       0.048200
     35 H8           0.2740     4.4180     0.7940 h1         1 K4D       0.069200
     36 H9           0.4910     4.2690    -0.9610 h1         1 K4D       0.069200
     37 H10         -3.4400     1.9180    -0.2540 ha         1 K4D       0.121000
     38 H11         -4.8220     0.1600    -1.0260 h1         1 K4D       0.070200
     39 H12         -4.8200     0.3710     0.7360 h1         1 K4D       0.070200
     40 H13         -0.8490    -1.4640     0.2470 ha         1 K4D       0.140000
     41 H14          2.5000    -3.4220    -1.4360 h1         1 K4D       0.011700
     42 H15          3.8610    -5.6500    -1.4190 hc         1 K4D       0.038200
     43 H16          5.3620    -5.6980    -0.5110 hc         1 K4D       0.038200
     44 H17          1.6130    -5.3690    -0.1060 h1         1 K4D       0.028200
     45 H18          1.6800    -5.2400     1.6510 h1         1 K4D       0.028200
     46 H19         -1.5440     3.3980    -0.1820 ha         1 K4D       0.122000
     47 H20          1.4860    -3.1060     0.7420 hn         1 K4D       0.412000
     48 O06         -3.2780    -0.8020    -0.0180 os         1 K4D      -0.327100
@<TRIPOS>BOND
     1     1     2 1   
     2     1    13 1   
     3     1    26 2   
     4     2     3 1   
     5     2    28 1   
     6     3    14 1   
     7     3    29 1   
     8     3    30 1   
     9     4    14 1   
    10     4    15 1   
    11     4    31 1   
    12     4    32 1   
    13     5    15 1   
    14     5    16 1   
    15     5    33 1   
    16     5    34 1   
    17     6    13 ar  
    18     6    18 ar  
    19     6    27 1   
    20     7    17 1   
    21     7    27 1   
    22     7    35 1   
    23     7    36 1   
    24     8    11 ar  
    25     8    18 ar  
    26     8    37 1   
    27     9    10 1   
    28     9    19 1   
    29     9    20 1   
    30     9    21 1   
    31    10    38 1   
    32    10    39 1   
    33    10    48 1   
    34    11    12 ar  
    35    11    48 1   
    36    12    13 ar  
    37    12    40 1   
    38    14    25 1   
    39    14    41 1   
    40    15    42 1   
    41    15    43 1   
    42    16    25 1   
    43    16    44 1   
    44    16    45 1   
    45    17    22 1   
    46    17    23 1   
    47    17    24 1   
    48    18    46 1   
    49    25    47 1   
@<TRIPOS>SUBSTRUCTURE
     1 K4D         1 TEMP              0 ****  ****    0 ROOT
