@<TRIPOS>MOLECULE
K4D
   48    49     1     0     0
SMALL
No Charge or Current Charge


@<TRIPOS>ATOM
      1 C10          1.5810    -0.0480    -0.3280 c          1 K4D       0.624700
      2 N12          1.6880    -1.1880    -1.1010 ns         1 K4D      -0.509900
      3 C13          2.9270    -1.9550    -1.3220 c3         1 K4D       0.098000
      4 C15          4.1920    -4.1740    -0.9680 c6         1 K4D      -0.072400
      5 C17          3.9610    -5.3640     1.2680 c6         1 K4D      -0.077400
      6 C20         -0.0460     1.8750     0.1460 ca         1 K4D       0.148100
      7 C22          0.8970     4.1240     0.6200 c3         1 K4D       0.087600
      8 C28         -2.4680     1.5000     0.0990 ca         1 K4D      -0.141000
      9 C02         -5.5820    -1.5780    -0.5610 c3         1 K4D       0.310000
     10 C05         -4.6790    -0.3520    -0.2920 c3         1 K4D       0.088600
     11 C07         -2.2560     0.1470    -0.2260 ca         1 K4D       0.101100
     12 C08         -0.9460    -0.3350    -0.3640 ca         1 K4D      -0.078000
     13 C09          0.1780     0.5120    -0.1820 ca         1 K4D      -0.140600
     14 C14          2.9190    -3.3520    -0.6260 c6         1 K4D       0.155500
     15 C16          4.1780    -5.5480    -0.2540 c6         1 K4D      -0.073400
     16 C18          2.7020    -4.5080     1.5520 c6         1 K4D       0.160800
     17 C23          2.3000     4.7650     0.7150 c3         1 K4D       0.312000
     18 C27         -1.3700     2.3550     0.2840 ca         1 K4D      -0.164000
     19 F01         -5.3820    -2.0690    -1.8070 f          1 K4D      -0.106000
     20 F03         -5.3370    -2.5710     0.3250 f          1 K4D      -0.106000
     21 F04         -6.8870    -1.2400    -0.4540 f          1 K4D      -0.106000
     22 F24          3.0440     4.1760     1.6800 f          1 K4D      -0.105000
     23 F25          2.9690     4.6550    -0.4570 f          1 K4D      -0.105000
     24 F26          2.2020     6.0810     1.0130 f          1 K4D      -0.105000
     25 N19          2.7710    -3.2070     0.8450 n7         1 K4D      -0.853400
     26 O11          2.5610     0.4300     0.2270 o          1 K4D      -0.559100
     27 O21          1.0340     2.7240     0.2940 os         1 K4D      -0.312100
     28 H1           0.8420    -1.5090    -1.5550 hn         1 K4D       0.310500
     29 H2           3.0490    -2.1050    -2.4030 h1         1 K4D       0.066200
     30 H3           3.7950    -1.3850    -0.9670 h1         1 K4D       0.066200
     31 H4           4.2630    -4.3230    -2.0550 hc         1 K4D       0.047700
     32 H5           5.0890    -3.6120    -0.6700 hc         1 K4D       0.047700
     33 H6           3.8630    -6.3430     1.7560 hc         1 K4D       0.048200
     34 H7           4.8410    -4.8800     1.7120 hc         1 K4D       0.048200
     35 H8           0.3840     4.2500     1.5830 h1         1 K4D       0.069200
     36 H9           0.3190     4.6480    -0.1520 h1         1 K4D       0.069200
     37 H10         -3.4700     1.9050     0.2130 ha         1 K4D       0.121000
     38 H11         -4.9250     0.4350    -1.0160 h1         1 K4D       0.070200
     39 H12         -4.8880     0.0270     0.7160 h1         1 K4D       0.070200
     40 H13         -0.8210    -1.3900    -0.5920 ha         1 K4D       0.140000
     41 H14          2.0450    -3.9020    -1.0050 h1         1 K4D       0.011700
     42 H15          3.3740    -6.1720    -0.6690 hc         1 K4D       0.038200
     43 H16          5.1190    -6.0820    -0.4400 hc         1 K4D       0.038200
     44 H17          1.8050    -5.0540     1.2240 h1         1 K4D       0.028200
     45 H18          2.6100    -4.3330     2.6340 h1         1 K4D       0.028200
     46 H19         -1.5700     3.3940     0.5290 ha         1 K4D       0.122000
     47 H20          1.9130    -2.6780     1.0340 hn         1 K4D       0.412000
     48 O06         -3.2940    -0.7430    -0.4140 os         1 K4D      -0.327100
@<TRIPOS>BOND
     1     1     2 1   
     2     1    13 1   
     3     1    26 2   
     4     2     3 1   
     5     2    28 1   
     6     3    14 1   
     7     3    29 1   
     8     3    30 1   
     9     4    14 1   
    10     4    15 1   
    11     4    31 1   
    12     4    32 1   
    13     5    15 1   
    14     5    16 1   
    15     5    33 1   
    16     5    34 1   
    17     6    13 ar  
    18     6    18 ar  
    19     6    27 1   
    20     7    17 1   
    21     7    27 1   
    22     7    35 1   
    23     7    36 1   
    24     8    11 ar  
    25     8    18 ar  
    26     8    37 1   
    27     9    10 1   
    28     9    19 1   
    29     9    20 1   
    30     9    21 1   
    31    10    38 1   
    32    10    39 1   
    33    10    48 1   
    34    11    12 ar  
    35    11    48 1   
    36    12    13 ar  
    37    12    40 1   
    38    14    25 1   
    39    14    41 1   
    40    15    42 1   
    41    15    43 1   
    42    16    25 1   
    43    16    44 1   
    44    16    45 1   
    45    17    22 1   
    46    17    23 1   
    47    17    24 1   
    48    18    46 1   
    49    25    47 1   
@<TRIPOS>SUBSTRUCTURE
     1 K4D         1 TEMP              0 ****  ****    0 ROOT
