@<TRIPOS>MOLECULE
K4E
   55    58     1     0     0
SMALL
No Charge or Current Charge


@<TRIPOS>ATOM
      1 N1          -4.0390     0.5710    -0.0010 nu         1 K4E      -0.935200
      2 C1          -5.3840     0.1840    -0.1050 ca         1 K4E       0.309000
      3 C2          -5.7540    -1.1630     0.0610 ca         1 K4E      -0.173000
      4 C3          -7.0990    -1.5420    -0.0450 ca         1 K4E       0.134000
      5 C4          -8.0870    -0.5840    -0.3160 ca         1 K4E      -0.118000
      6 C5          -7.7340     0.7660    -0.4850 ca         1 K4E      -0.151000
      7 C6          -6.3790     1.1610    -0.3810 ca         1 K4E       0.079100
      8 O1          -5.9900     2.4840    -0.5400 os         1 K4E      -0.347100
      9 C7          -6.9300     3.5380    -0.8210 c3         1 K4E       0.151900
     10 Cl1         -7.5500    -3.2290     0.1650 cl         1 K4E      -0.216000
     11 C8          -2.8400    -0.2870     0.2620 c3         1 K4E       0.126800
     12 C9          -1.4830     0.4930     0.3030 c          1 K4E       0.595100
     13 O2          -1.3970     1.7050     0.1300 o          1 K4E      -0.597100
     14 N2          -0.3710    -0.2860     0.5520 ns         1 K4E      -0.501900
     15 C10          1.0130     0.1990     0.6210 c6         1 K4E       0.106700
     16 C11          1.8730    -0.7720     1.4730 c6         1 K4E      -0.087900
     17 C12          3.3490    -0.3040     1.5490 c6         1 K4E      -0.090900
     18 C13          1.6170     0.3230    -0.8040 c6         1 K4E      -0.087900
     19 C14          3.0920     0.7970    -0.7600 c6         1 K4E      -0.090900
     20 C15          3.9510    -0.1360     0.1300 c6         1 K4E       0.139700
     21 N3           5.3750     0.2650     0.1460 n          1 K4E      -0.295000
     22 C16          5.9000     1.3960     0.8040 c          1 K4E       0.593000
     23 O3           5.3090     2.3230     1.3320 o          1 K4E      -0.567000
     24 N4           7.2510     1.2160     0.7340 ns         1 K4E      -0.503600
     25 C17          7.6250     0.0450     0.0720 ca         1 K4E       0.004600
     26 C18          6.4450    -0.5880    -0.2790 ca         1 K4E       0.006600
     27 C19          6.4550    -1.7100    -1.1210 ca         1 K4E      -0.111000
     28 C20          7.7110    -2.2450    -1.4860 ca         1 K4E      -0.111000
     29 C21          8.9150    -1.6280    -1.0610 ca         1 K4E      -0.109000
     30 C22          8.8820    -0.4500    -0.2830 ca         1 K4E      -0.111000
     31 H1          -3.8700     1.5740    -0.1370 hn         1 K4E       0.514000
     32 H2          -5.0060    -1.9190     0.2720 ha         1 K4E       0.125000
     33 H3          -9.1280    -0.8890    -0.3960 ha         1 K4E       0.129000
     34 H4          -8.5210     1.4860    -0.6940 ha         1 K4E       0.120000
     35 H5          -7.4550     3.3500    -1.7660 h1         1 K4E       0.040700
     36 H6          -7.6700     3.6250    -0.0160 h1         1 K4E       0.040700
     37 H7          -6.4080     4.4990    -0.9080 h1         1 K4E       0.040700
     38 H8          -2.9490    -0.8010     1.2260 h1         1 K4E       0.051200
     39 H9          -2.7500    -1.0570    -0.5160 h1         1 K4E       0.051200
     40 H10         -0.5350    -1.2770     0.6850 hn         1 K4E       0.308500
     41 H11          1.0160     1.1900     1.1010 h1         1 K4E       0.092700
     42 H12          1.4580    -0.8420     2.4880 hc         1 K4E       0.046700
     43 H13          1.8300    -1.7850     1.0470 hc         1 K4E       0.046700
     44 H14          3.4000     0.6440     2.1010 hc         1 K4E       0.064950
     45 H15          3.9410    -1.0320     2.1200 hc         1 K4E       0.064950
     46 H16          1.5570    -0.6460    -1.3200 hc         1 K4E       0.046700
     47 H17          1.0240     1.0290    -1.4010 hc         1 K4E       0.046700
     48 H18          3.5050     0.8240    -1.7780 hc         1 K4E       0.064950
     49 H19          3.1360     1.8250    -0.3770 hc         1 K4E       0.064950
     50 H20          3.9030    -1.1300    -0.3360 h1         1 K4E       0.052700
     51 H21          7.9050     1.8880     1.1220 hn         1 K4E       0.468000
     52 H22          5.5330    -2.1620    -1.4780 ha         1 K4E       0.120000
     53 H23          7.7550    -3.1320    -2.1150 ha         1 K4E       0.116000
     54 H24          9.8720    -2.0490    -1.3620 ha         1 K4E       0.117000
     55 H25          9.7970     0.0620     0.0090 ha         1 K4E       0.123000
@<TRIPOS>BOND
     1     1     2 1   
     2     1    11 1   
     3     1    31 1   
     4     2     3 ar  
     5     2     7 ar  
     6     3     4 ar  
     7     3    32 1   
     8     4     5 ar  
     9     4    10 1   
    10     5     6 ar  
    11     5    33 1   
    12     6     7 ar  
    13     6    34 1   
    14     7     8 1   
    15     8     9 1   
    16     9    35 1   
    17     9    36 1   
    18     9    37 1   
    19    11    12 1   
    20    11    38 1   
    21    11    39 1   
    22    12    13 2   
    23    12    14 1   
    24    14    15 1   
    25    14    40 1   
    26    15    16 1   
    27    15    18 1   
    28    15    41 1   
    29    16    17 1   
    30    16    42 1   
    31    16    43 1   
    32    17    20 1   
    33    17    44 1   
    34    17    45 1   
    35    18    19 1   
    36    18    46 1   
    37    18    47 1   
    38    19    20 1   
    39    19    48 1   
    40    19    49 1   
    41    20    21 1   
    42    20    50 1   
    43    21    22 1   
    44    21    26 1   
    45    22    23 2   
    46    22    24 1   
    47    24    25 1   
    48    24    51 1   
    49    25    26 ar  
    50    25    30 ar  
    51    26    27 ar  
    52    27    28 ar  
    53    27    52 1   
    54    28    29 ar  
    55    28    53 1   
    56    29    30 ar  
    57    29    54 1   
    58    30    55 1   
@<TRIPOS>SUBSTRUCTURE
     1 K4E         1 TEMP              0 ****  ****    0 ROOT
