@<TRIPOS>MOLECULE
K4E
   55    58     1     0     0
SMALL
abcg2


@<TRIPOS>ATOM
      1 N1          -3.9080     0.6220     0.1530 nu         1 K4E      -0.935200
      2 C1          -5.1810     0.1850    -0.0970 ca         1 K4E       0.309000
      3 C2          -5.4840    -1.1510    -0.3420 ca         1 K4E      -0.173000
      4 C3          -6.8030    -1.5430    -0.5490 ca         1 K4E       0.134000
      5 C4          -7.8400    -0.6390    -0.5290 ca         1 K4E      -0.118000
      6 C5          -7.5430     0.7060    -0.2910 ca         1 K4E      -0.151000
      7 C6          -6.2450     1.1210    -0.0740 ca         1 K4E       0.079100
      8 O1          -5.8710     2.3960     0.1670 os         1 K4E      -0.347100
      9 C7          -6.8650     3.4000     0.1720 c3         1 K4E       0.151900
     10 CL1         -7.1310    -3.2250    -0.8450 cl         1 K4E      -0.216000
     11 C8          -2.7780    -0.2270    -0.0820 c3         1 K4E       0.126800
     12 C9          -1.4910     0.5710     0.0630 c          1 K4E       0.595100
     13 O2          -1.4790     1.7890    -0.0460 o          1 K4E      -0.597100
     14 N2          -0.4060    -0.1790     0.2850 ns         1 K4E      -0.501900
     15 C10          0.9550     0.3210     0.3090 c6         1 K4E       0.106700
     16 C11          1.7420    -0.3790     1.4130 c6         1 K4E      -0.087900
     17 C12          3.1920     0.0910     1.4470 c6         1 K4E      -0.090900
     18 C13          1.6340     0.1340    -1.0480 c6         1 K4E      -0.087900
     19 C14          3.0860     0.6010    -1.0230 c6         1 K4E      -0.090900
     20 C15          3.8550    -0.1130     0.0860 c6         1 K4E       0.139700
     21 N3           5.2660     0.2400     0.0980 n          1 K4E      -0.295000
     22 C16          5.7660     1.4950     0.3740 c          1 K4E       0.593000
     23 O3           5.1310     2.5020     0.6380 o          1 K4E      -0.567000
     24 N4           7.1290     1.3840     0.2880 ns         1 K4E      -0.503600
     25 C17          7.4970     0.0990    -0.0390 ca         1 K4E       0.004600
     26 C18          6.3090    -0.6310    -0.1620 ca         1 K4E       0.006600
     27 C19          6.3340    -1.9730    -0.4940 ca         1 K4E      -0.111000
     28 C20          7.5780    -2.5670    -0.6960 ca         1 K4E      -0.111000
     29 C21          8.7560    -1.8370    -0.5700 ca         1 K4E      -0.109000
     30 C22          8.7330    -0.4850    -0.2370 ca         1 K4E      -0.111000
     31 H1          -3.7330     1.6030    -0.0010 hn         1 K4E       0.514000
     32 H2          -4.6990    -1.8950    -0.3700 ha         1 K4E       0.125000
     33 H3          -8.8620    -0.9490    -0.6930 ha         1 K4E       0.129000
     34 H4          -8.3600     1.4140    -0.2790 ha         1 K4E       0.120000
     35 H5          -7.3730     3.4730    -0.7930 h1         1 K4E       0.040700
     36 H6          -7.6120     3.2270     0.9510 h1         1 K4E       0.040700
     37 H7          -6.3570     4.3390     0.3730 h1         1 K4E       0.040700
     38 H8          -2.7720    -1.0710     0.6150 h1         1 K4E       0.051200
     39 H9          -2.7790    -0.6630    -1.0930 h1         1 K4E       0.051200
     40 H10         -0.5240    -1.1810     0.3320 hn         1 K4E       0.308500
     41 H11          0.9060     1.3880     0.5380 h1         1 K4E       0.092700
     42 H12          1.2720    -0.1890     2.3800 hc         1 K4E       0.046700
     43 H13          1.7100    -1.4630     1.2510 hc         1 K4E       0.046700
     44 H14          3.2300     1.1460     1.7240 hc         1 K4E       0.064950
     45 H15          3.7430    -0.4630     2.2110 hc         1 K4E       0.064950
     46 H16          1.5920    -0.9260    -1.3230 hc         1 K4E       0.046700
     47 H17          1.0830     0.6800    -1.8150 hc         1 K4E       0.046700
     48 H18          3.5550     0.3950    -1.9880 hc         1 K4E       0.064950
     49 H19          3.1270     1.6810    -0.8680 hc         1 K4E       0.064950
     50 H20          3.8240    -1.1840    -0.1320 h1         1 K4E       0.052700
     51 H21          7.7550     2.1560     0.4510 hn         1 K4E       0.468000
     52 H22          5.4260    -2.5530    -0.5970 ha         1 K4E       0.120000
     53 H23          7.6240    -3.6160    -0.9560 ha         1 K4E       0.116000
     54 H24          9.7080    -2.3250    -0.7350 ha         1 K4E       0.117000
     55 H25          9.6460     0.0850    -0.1360 ha         1 K4E       0.123000
@<TRIPOS>BOND
     1     1     2 1   
     2     1    11 1   
     3     1    31 1   
     4     2     3 ar  
     5     2     7 ar  
     6     3     4 ar  
     7     3    32 1   
     8     4     5 ar  
     9     4    10 1   
    10     5     6 ar  
    11     5    33 1   
    12     6     7 ar  
    13     6    34 1   
    14     7     8 1   
    15     8     9 1   
    16     9    35 1   
    17     9    36 1   
    18     9    37 1   
    19    11    12 1   
    20    11    38 1   
    21    11    39 1   
    22    12    13 2   
    23    12    14 1   
    24    14    15 1   
    25    14    40 1   
    26    15    16 1   
    27    15    18 1   
    28    15    41 1   
    29    16    17 1   
    30    16    42 1   
    31    16    43 1   
    32    17    20 1   
    33    17    44 1   
    34    17    45 1   
    35    18    19 1   
    36    18    46 1   
    37    18    47 1   
    38    19    20 1   
    39    19    48 1   
    40    19    49 1   
    41    20    21 1   
    42    20    50 1   
    43    21    22 1   
    44    21    26 1   
    45    22    23 2   
    46    22    24 1   
    47    24    25 1   
    48    24    51 1   
    49    25    26 ar  
    50    25    30 ar  
    51    26    27 ar  
    52    27    28 ar  
    53    27    52 1   
    54    28    29 ar  
    55    28    53 1   
    56    29    30 ar  
    57    29    54 1   
    58    30    55 1   
@<TRIPOS>SUBSTRUCTURE
     1 K4E         1 TEMP              0 ****  ****    0 ROOT
