@<TRIPOS>MOLECULE
K4F
   56    60     1     0     0
SMALL
No Charge or Current Charge


@<TRIPOS>ATOM
      1 C1           5.1810     1.9730    -0.2150 ca         1 K4F      -0.093000
      2 C2           5.2880     3.0360     0.6970 ca         1 K4F      -0.109500
      3 C3           4.6400     2.9650     1.9400 ca         1 K4F      -0.098000
      4 C4           3.8850     1.8280     2.2680 ca         1 K4F      -0.109500
      5 C5           3.7780     0.7650     1.3560 ca         1 K4F      -0.093000
      6 C6           4.4280     0.8230     0.0990 ca         1 K4F      -0.099300
      7 C7           4.3460    -0.3100    -0.9420 c5         1 K4F       0.131000
      8 C8           5.4260    -1.4250    -0.6640 c5         1 K4F       0.182000
      9 C9           5.9850    -1.5030     0.7830 c3         1 K4F      -0.098100
     10 C10          6.6080    -1.3630    -1.6580 c3         1 K4F      -0.098100
     11 O1           4.7150    -2.6600    -0.8950 os         1 K4F      -0.416100
     12 C11          3.3690    -2.4600    -0.7880 c          1 K4F       0.702100
     13 O2           2.5420    -3.3570    -0.8590 o          1 K4F      -0.514000
     14 N1           3.1050    -1.0850    -0.7980 n          1 K4F      -0.260400
     15 C12          1.7960    -0.4750    -0.8000 ca         1 K4F       0.010000
     16 C13          1.5450     0.6320    -1.6330 ca         1 K4F      -0.141000
     17 C14          0.2510     1.1640    -1.7600 ca         1 K4F      -0.048500
     18 C15          0.6950    -1.1060    -0.1880 ca         1 K4F      -0.141000
     19 C16         -0.6030    -0.5810    -0.3070 ca         1 K4F      -0.048500
     20 C17         -0.8440     0.5740    -1.0910 ca         1 K4F      -0.171600
     21 C18         -2.2300     1.1760    -1.2480 c          1 K4F       0.626700
     22 O3          -2.4120     2.1660    -1.9490 o          1 K4F      -0.587100
     23 N2          -3.2460     0.5360    -0.5540 ns         1 K4F      -0.134000
     24 C19         -4.6480     0.7720    -0.4340 ca         1 K4F       0.007000
     25 C20         -5.3090     1.8350    -1.0940 ca         1 K4F      -0.145000
     26 C21         -6.6910     2.0210    -0.9400 ca         1 K4F      -0.070000
     27 C22         -7.4310     1.1510    -0.1290 ca         1 K4F      -0.131000
     28 C23         -5.3900    -0.1150     0.3900 ca         1 K4F       0.229000
     29 C24         -6.7890     0.0900     0.5320 ca         1 K4F      -0.052000
     30 C25         -7.5380    -0.7800     1.3450 ca         1 K4F      -0.061000
     31 C26         -6.8710    -1.8290     1.9930 ca         1 K4F      -0.163000
     32 C27         -5.4890    -1.9740     1.8080 ca         1 K4F       0.353900
     33 N3          -4.7610    -1.1410     1.0280 nb         1 K4F      -0.692000
     34 H1           5.6900     2.0440    -1.1740 ha         1 K4F       0.118000
     35 H2           5.8740     3.9160     0.4400 ha         1 K4F       0.117500
     36 H3           4.7230     3.7880     2.6470 ha         1 K4F       0.117000
     37 H4           3.3820     1.7700     3.2310 ha         1 K4F       0.117500
     38 H5           3.1910    -0.1060     1.6370 ha         1 K4F       0.118000
     39 H6           4.4330     0.0820    -1.9640 h1         1 K4F       0.064700
     40 H7           5.1840    -1.6330     1.5200 hc         1 K4F       0.054200
     41 H8           6.6670    -2.3550     0.8960 hc         1 K4F       0.054200
     42 H9           6.5470    -0.6000     1.0490 hc         1 K4F       0.054200
     43 H10          7.1780    -0.4340    -1.5330 hc         1 K4F       0.054200
     44 H11          7.2990    -2.2020    -1.5120 hc         1 K4F       0.054200
     45 H12          6.2560    -1.3990    -2.6950 hc         1 K4F       0.054200
     46 H13          2.3550     1.1000    -2.1860 ha         1 K4F       0.130000
     47 H14          0.1030     2.0370    -2.3930 ha         1 K4F       0.129000
     48 H15          0.8390    -1.9950     0.4210 ha         1 K4F       0.130000
     49 H16         -1.4090    -1.0930     0.2140 ha         1 K4F       0.129000
     50 H17         -2.9410    -0.2640    -0.0180 hn         1 K4F       0.186000
     51 H18         -4.7710     2.5300    -1.7310 ha         1 K4F       0.152000
     52 H19         -7.1900     2.8410    -1.4520 ha         1 K4F       0.117000
     53 H20         -8.5030     1.3030    -0.0160 ha         1 K4F       0.118000
     54 H21         -8.6110    -0.6460     1.4720 ha         1 K4F       0.121000
     55 H22         -7.4110    -2.5240     2.6300 ha         1 K4F       0.125000
     56 H23         -4.9440    -2.7800     2.2990 h4         1 K4F       0.019100
@<TRIPOS>BOND
     1     1     2 ar  
     2     1     6 ar  
     3     1    34 1   
     4     2     3 ar  
     5     2    35 1   
     6     3     4 ar  
     7     3    36 1   
     8     4     5 ar  
     9     4    37 1   
    10     5     6 ar  
    11     5    38 1   
    12     6     7 1   
    13     7     8 1   
    14     7    14 1   
    15     7    39 1   
    16     8     9 1   
    17     8    10 1   
    18     8    11 1   
    19     9    40 1   
    20     9    41 1   
    21     9    42 1   
    22    10    43 1   
    23    10    44 1   
    24    10    45 1   
    25    11    12 1   
    26    12    13 2   
    27    12    14 1   
    28    14    15 1   
    29    15    16 ar  
    30    15    18 ar  
    31    16    17 ar  
    32    16    46 1   
    33    17    20 ar  
    34    17    47 1   
    35    18    19 ar  
    36    18    48 1   
    37    19    20 ar  
    38    19    49 1   
    39    20    21 1   
    40    21    22 2   
    41    21    23 1   
    42    23    24 1   
    43    23    50 1   
    44    24    25 ar  
    45    24    28 ar  
    46    25    26 ar  
    47    25    51 1   
    48    26    27 ar  
    49    26    52 1   
    50    27    29 ar  
    51    27    53 1   
    52    28    29 ar  
    53    28    33 ar  
    54    29    30 ar  
    55    30    31 ar  
    56    30    54 1   
    57    31    32 ar  
    58    31    55 1   
    59    32    33 ar  
    60    32    56 1   
@<TRIPOS>SUBSTRUCTURE
     1 K4F         1 TEMP              0 ****  ****    0 ROOT
