@<TRIPOS>MOLECULE
K4F
   56    60     1     0     0
SMALL
abcg2


@<TRIPOS>ATOM
      1 C1           4.8960     1.9640    -0.0550 ca         1 K4F      -0.093000
      2 C2           4.8940     2.9690     0.9030 ca         1 K4F      -0.109500
      3 C3           4.1730     2.8050     2.0770 ca         1 K4F      -0.098000
      4 C4           3.4580     1.6330     2.2870 ca         1 K4F      -0.109500
      5 C5           3.4680     0.6260     1.3330 ca         1 K4F      -0.093000
      6 C6           4.1920     0.7830     0.1550 ca         1 K4F      -0.099300
      7 C7           4.2650    -0.2910    -0.8920 c5         1 K4F       0.131000
      8 C8           5.3840    -1.3440    -0.6700 c5         1 K4F       0.182000
      9 C9           5.6970    -1.6290     0.7890 c3         1 K4F      -0.098100
     10 C10          6.6360    -1.0100    -1.4510 c3         1 K4F      -0.098100
     11 O1           4.7910    -2.5390    -1.2300 os         1 K4F      -0.416100
     12 C11          3.4660    -2.4320    -1.2870 c          1 K4F       0.702100
     13 O2           2.7520    -3.3460    -1.6060 o          1 K4F      -0.514000
     14 N1           3.0990    -1.1550    -0.9540 n          1 K4F      -0.260400
     15 C12          1.7910    -0.6700    -1.0880 ca         1 K4F       0.010000
     16 C13          1.5690     0.5930    -1.6320 ca         1 K4F      -0.141000
     17 C14          0.2830     1.0880    -1.7400 ca         1 K4F      -0.048500
     18 C15          0.7050    -1.4230    -0.6460 ca         1 K4F      -0.141000
     19 C16         -0.5780    -0.9180    -0.7580 ca         1 K4F      -0.048500
     20 C17         -0.8090     0.3470    -1.2970 ca         1 K4F      -0.171600
     21 C18         -2.1690     0.9400    -1.4470 c          1 K4F       0.626700
     22 O3          -2.3910     1.8210    -2.2600 o          1 K4F      -0.587100
     23 N2          -3.1100     0.4380    -0.6080 ns         1 K4F      -0.134000
     24 C19         -4.4600     0.7460    -0.5220 ca         1 K4F       0.007000
     25 C20         -5.1480     1.6380    -1.3130 ca         1 K4F      -0.145000
     26 C21         -6.5280     1.8470    -1.1110 ca         1 K4F      -0.070000
     27 C22         -7.2230     1.1860    -0.1380 ca         1 K4F      -0.131000
     28 C23         -5.1650     0.0380     0.5020 ca         1 K4F       0.229000
     29 C24         -6.5460     0.2630     0.6890 ca         1 K4F      -0.052000
     30 C25         -7.1830    -0.4660     1.7170 ca         1 K4F      -0.061000
     31 C26         -6.4560    -1.3430     2.4730 ca         1 K4F      -0.163000
     32 C27         -5.0820    -1.4930     2.2000 ca         1 K4F       0.353900
     33 N3          -4.4620    -0.8320     1.2580 nb         1 K4F      -0.692000
     34 H1           5.4460     2.1030    -0.9790 ha         1 K4F       0.118000
     35 H2           5.4480     3.8820     0.7260 ha         1 K4F       0.117500
     36 H3           4.1610     3.5900     2.8220 ha         1 K4F       0.117000
     37 H4           2.8870     1.5020     3.1970 ha         1 K4F       0.117500
     38 H5           2.9050    -0.2810     1.5150 ha         1 K4F       0.118000
     39 H6           4.4280     0.1840    -1.8690 h1         1 K4F       0.064700
     40 H7           4.8060    -1.8880     1.3610 hc         1 K4F       0.054200
     41 H8           6.3970    -2.4620     0.8550 hc         1 K4F       0.054200
     42 H9           6.1610    -0.7640     1.2610 hc         1 K4F       0.054200
     43 H10          7.0620    -0.0780    -1.0790 hc         1 K4F       0.054200
     44 H11          7.3900    -1.7880    -1.3330 hc         1 K4F       0.054200
     45 H12          6.4240    -0.8850    -2.5130 hc         1 K4F       0.054200
     46 H13          2.3950     1.1970    -1.9820 ha         1 K4F       0.130000
     47 H14          0.1310     2.0680    -2.1710 ha         1 K4F       0.129000
     48 H15          0.8500    -2.3960    -0.2040 ha         1 K4F       0.130000
     49 H16         -1.3940    -1.5480    -0.4270 ha         1 K4F       0.129000
     50 H17         -2.8260    -0.2270     0.1020 hn         1 K4F       0.186000
     51 H18         -4.6470     2.1860    -2.0940 ha         1 K4F       0.152000
     52 H19         -7.0380     2.5560    -1.7500 ha         1 K4F       0.117000
     53 H20         -8.2820     1.3590     0.0090 ha         1 K4F       0.118000
     54 H21         -8.2410    -0.3210     1.8960 ha         1 K4F       0.121000
     55 H22         -6.9120    -1.9170     3.2670 ha         1 K4F       0.125000
     56 H23         -4.4870    -2.1840     2.7850 h4         1 K4F       0.019100
@<TRIPOS>BOND
     1     1     2 ar  
     2     1     6 ar  
     3     1    34 1   
     4     2     3 ar  
     5     2    35 1   
     6     3     4 ar  
     7     3    36 1   
     8     4     5 ar  
     9     4    37 1   
    10     5     6 ar  
    11     5    38 1   
    12     6     7 1   
    13     7     8 1   
    14     7    14 1   
    15     7    39 1   
    16     8     9 1   
    17     8    10 1   
    18     8    11 1   
    19     9    40 1   
    20     9    41 1   
    21     9    42 1   
    22    10    43 1   
    23    10    44 1   
    24    10    45 1   
    25    11    12 1   
    26    12    13 2   
    27    12    14 1   
    28    14    15 1   
    29    15    16 ar  
    30    15    18 ar  
    31    16    17 ar  
    32    16    46 1   
    33    17    20 ar  
    34    17    47 1   
    35    18    19 ar  
    36    18    48 1   
    37    19    20 ar  
    38    19    49 1   
    39    20    21 1   
    40    21    22 2   
    41    21    23 1   
    42    23    24 1   
    43    23    50 1   
    44    24    25 ar  
    45    24    28 ar  
    46    25    26 ar  
    47    25    51 1   
    48    26    27 ar  
    49    26    52 1   
    50    27    29 ar  
    51    27    53 1   
    52    28    29 ar  
    53    28    33 ar  
    54    29    30 ar  
    55    30    31 ar  
    56    30    54 1   
    57    31    32 ar  
    58    31    55 1   
    59    32    33 ar  
    60    32    56 1   
@<TRIPOS>SUBSTRUCTURE
     1 K4F         1 TEMP              0 ****  ****    0 ROOT
