@<TRIPOS>MOLECULE
K4G
   54    54     1     0     0
SMALL
bcc


@<TRIPOS>ATOM
      1 C10         -0.6160    -0.0480     0.2400 c3         1 K4G      -0.066400
      2 C15          4.3580    -0.4350     0.9620 c          1 K4G       0.697100
      3 C20          8.0990     0.9770    -1.6790 c5         1 K4G       0.133400
      4 C22          7.5720     0.5410     0.5000 c          1 K4G       0.705600
      5 C01        -12.0610     0.1160    -0.4090 c3         1 K4G      -0.088100
      6 C02        -10.7020    -0.3730    -0.8880 c3         1 K4G      -0.074400
      7 C03         -9.5410     0.2680    -0.1370 c3         1 K4G      -0.075400
      8 C04         -8.1770    -0.2110    -0.6170 c3         1 K4G      -0.075400
      9 C05         -7.0140     0.3700     0.1770 c3         1 K4G      -0.073400
     10 C07         -4.4880     0.3530     0.5410 c3         1 K4G      -0.073400
     11 C08         -3.1330    -0.0200    -0.0470 c3         1 K4G      -0.074400
     12 C09         -1.9640     0.2140     0.9020 c3         1 K4G      -0.075400
     13 C11          0.5390     0.0660     1.2220 c3         1 K4G      -0.178400
     14 C12          1.8990    -0.1650     0.6260 c          1 K4G       0.579100
     15 C14          3.0710     0.0820     1.5590 c3         1 K4G      -0.275400
     16 C18          6.3360     0.2060    -0.3250 c5         1 K4G      -0.002300
     17 C19          6.5800     0.9960    -1.6020 c5         1 K4G      -0.128400
     18 N17          5.1130     0.4980     0.3530 ns         1 K4G      -0.551900
     19 O13          2.0710    -0.5150    -0.5180 o          1 K4G      -0.504100
     20 O16          4.6550    -1.6170     1.0040 o          1 K4G      -0.576100
     21 O21          8.5430     0.9540    -0.3080 os         1 K4G      -0.402900
     22 H1          -0.6190    -1.0450    -0.2080 hc         1 K4G       0.053200
     23 H2          -0.4750     0.6590    -0.5810 hc         1 K4G       0.053200
     24 H3           8.4710     0.0820    -2.1790 h1         1 K4G       0.067200
     25 H4           8.5270     1.8550    -2.1560 h1         1 K4G       0.067200
     26 H5         -12.8760    -0.3630    -0.9540 hc         1 K4G       0.031367
     27 H6         -12.2040    -0.0950     0.6530 hc         1 K4G       0.031367
     28 H7         -12.1630     1.1940    -0.5440 hc         1 K4G       0.031367
     29 H8         -10.6430    -1.4610    -0.7780 hc         1 K4G       0.036700
     30 H9         -10.5960    -0.1720    -1.9580 hc         1 K4G       0.036700
     31 H10         -9.6010     1.3570    -0.2370 hc         1 K4G       0.036700
     32 H11         -9.6430     0.0570     0.9340 hc         1 K4G       0.036700
     33 H12         -8.1360    -1.3050    -0.5600 hc         1 K4G       0.036700
     34 H13         -8.0570     0.0390    -1.6770 hc         1 K4G       0.036700
     35 H14         -7.0640     1.4640     0.1570 hc         1 K4G       0.037200
     36 H15         -7.1200     0.0830     1.2300 hc         1 K4G       0.037200
     37 H16         -5.6440    -1.1780    -0.4160 hc         1 K4G       0.037700
     38 H17         -5.5080     0.2910    -1.3560 hc         1 K4G       0.037700
     39 H18         -4.5300     1.4360     0.6990 hc         1 K4G       0.037200
     40 H19         -4.5990    -0.1010     1.5320 hc         1 K4G       0.037200
     41 H20         -3.1430    -1.0740    -0.3430 hc         1 K4G       0.040200
     42 H21         -2.9730     0.5500    -0.9690 hc         1 K4G       0.040200
     43 H22         -2.0770    -0.4340     1.7780 hc         1 K4G       0.036700
     44 H23         -1.9910     1.2420     1.2790 hc         1 K4G       0.036700
     45 H24          0.5440     1.0450     1.7130 hc         1 K4G       0.063200
     46 H25          0.4210    -0.6560     2.0390 hc         1 K4G       0.063200
     47 H26          2.8840    -0.4120     2.5140 hc         1 K4G       0.084700
     48 H27          3.1070     1.1550     1.7730 hc         1 K4G       0.084700
     49 H28          6.3720    -0.8680    -0.5330 h1         1 K4G       0.116700
     50 H29          6.2130     2.0200    -1.4920 hc         1 K4G       0.071700
     51 H30          6.1140     0.5540    -2.4790 hc         1 K4G       0.071700
     52 H31          4.8220     1.4630     0.3920 hn         1 K4G       0.316500
     53 O23          7.7070     0.4650     1.6880 o          1 K4G      -0.548500
     54 C06         -5.6540    -0.0850    -0.3370 c3         1 K4G      -0.075400
@<TRIPOS>BOND
     1     1    12 1   
     2     1    13 1   
     3     1    22 1   
     4     1    23 1   
     5     2    15 1   
     6     2    18 1   
     7     2    20 2   
     8     3    17 1   
     9     3    21 1   
    10     3    24 1   
    11     3    25 1   
    12     4    16 1   
    13     4    21 1   
    14     4    53 2   
    15     5     6 1   
    16     5    26 1   
    17     5    27 1   
    18     5    28 1   
    19     6     7 1   
    20     6    29 1   
    21     6    30 1   
    22     7     8 1   
    23     7    31 1   
    24     7    32 1   
    25     8     9 1   
    26     8    33 1   
    27     8    34 1   
    28     9    35 1   
    29     9    36 1   
    30     9    54 1   
    31    10    11 1   
    32    10    39 1   
    33    10    40 1   
    34    10    54 1   
    35    11    12 1   
    36    11    41 1   
    37    11    42 1   
    38    12    43 1   
    39    12    44 1   
    40    13    14 1   
    41    13    45 1   
    42    13    46 1   
    43    14    15 1   
    44    14    19 2   
    45    15    47 1   
    46    15    48 1   
    47    16    17 1   
    48    16    18 1   
    49    16    49 1   
    50    17    50 1   
    51    17    51 1   
    52    18    52 1   
    53    37    54 1   
    54    38    54 1   
@<TRIPOS>SUBSTRUCTURE
     1 K4G         1 TEMP              0 ****  ****    0 ROOT
