@<TRIPOS>MOLECULE
K4G
   54    54     1     0     0
SMALL
No Charge or Current Charge


@<TRIPOS>ATOM
      1 C10         -0.0200     1.6640     0.9270 c3         1 K4G      -0.066400
      2 C15          3.4950     0.3420     1.3880 c          1 K4G       0.630100
      3 C20          4.9120    -1.2130    -2.6330 c5         1 K4G       0.156600
      4 C22          6.3100    -0.7100    -0.8700 c          1 K4G       0.630100
      5 C01        -11.0270    -1.5230    -1.0050 c3         1 K4G      -0.088100
      6 C02         -9.5340    -1.5480    -1.3850 c3         1 K4G      -0.074400
      7 C03         -8.6520    -0.7190    -0.4270 c3         1 K4G      -0.075400
      8 C04         -7.1550    -0.7450    -0.8070 c3         1 K4G      -0.075400
      9 C05         -6.2730     0.0850     0.1510 c3         1 K4G      -0.073400
     10 C07         -3.8950     0.8880     0.7290 c3         1 K4G      -0.073400
     11 C08         -2.3980     0.8620     0.3490 c3         1 K4G      -0.074400
     12 C09         -1.5160     1.6910     1.3080 c3         1 K4G      -0.075400
     13 C11          0.8620     2.4950     1.8900 c3         1 K4G      -0.178400
     14 C12          2.3400     2.4800     1.4660 c          1 K4G       0.579100
     15 C14          3.2910     1.5760     2.2310 c3         1 K4G      -0.275400
     16 C18          4.8670    -0.7870    -0.3200 c5         1 K4G      -0.002300
     17 C19          4.0040    -0.5260    -1.5810 c5         1 K4G      -0.128400
     18 N17          4.6150     0.3660     0.5810 ns         1 K4G      -0.484900
     19 O13          2.7460     3.1890     0.5560 o          1 K4G      -0.504100
     20 O16          2.7190    -0.6000     1.4240 o          1 K4G      -0.576100
     21 O21          6.2630    -0.8860    -2.2260 os         1 K4G      -0.426100
     22 H1           0.3280     0.6240     0.9180 hc         1 K4G       0.053200
     23 H2           0.0980     2.0490    -0.0950 hc         1 K4G       0.053200
     24 H3           4.7920    -2.3050    -2.6090 h1         1 K4G       0.067200
     25 H4           4.7290    -0.8640    -3.6580 h1         1 K4G       0.067200
     26 H5         -11.6110    -2.1240    -1.7120 hc         1 K4G       0.031367
     27 H6         -11.1790    -1.9330     0.0010 hc         1 K4G       0.031367
     28 H7         -11.4150    -0.4970    -1.0240 hc         1 K4G       0.031367
     29 H8          -9.1860    -2.5890    -1.3910 hc         1 K4G       0.036700
     30 H9          -9.4200    -1.1660    -2.4070 hc         1 K4G       0.036700
     31 H10         -9.0040     0.3200    -0.4220 hc         1 K4G       0.036700
     32 H11         -8.7700    -1.1020     0.5940 hc         1 K4G       0.036700
     33 H12         -6.8030    -1.7840    -0.8120 hc         1 K4G       0.036700
     34 H13         -7.0370    -0.3610    -1.8290 hc         1 K4G       0.036700
     35 H14         -6.6250     1.1240     0.1560 hc         1 K4G       0.037200
     36 H15         -6.3920    -0.2980     1.1720 hc         1 K4G       0.037200
     37 H16         -4.4240    -0.9800    -0.2350 hc         1 K4G       0.037700
     38 H17         -4.6580     0.4430    -1.2510 hc         1 K4G       0.037700
     39 H18         -4.2470     1.9280     0.7340 hc         1 K4G       0.037200
     40 H19         -4.0130     0.5050     1.7500 hc         1 K4G       0.037200
     41 H20         -2.0460    -0.1770     0.3430 hc         1 K4G       0.040200
     42 H21         -2.2790     1.2460    -0.6730 hc         1 K4G       0.040200
     43 H22         -1.6350     1.3080     2.3290 hc         1 K4G       0.036700
     44 H23         -1.8680     2.7310     1.3130 hc         1 K4G       0.036700
     45 H24          0.5060     3.5320     1.8810 hc         1 K4G       0.063200
     46 H25          0.7540     2.0720     2.8950 hc         1 K4G       0.063200
     47 H26          2.8410     1.2700     3.1810 hc         1 K4G       0.084700
     48 H27          4.2420     2.1080     2.3440 hc         1 K4G       0.084700
     49 H28          4.7080    -1.7790     0.1270 h1         1 K4G       0.116700
     50 H29          3.8920     0.5410    -1.8100 hc         1 K4G       0.071700
     51 H30          3.0040    -0.9680    -1.5210 hc         1 K4G       0.071700
     52 H31          5.2070     1.1900     0.6290 hn         1 K4G       0.316500
     53 O23          7.3410    -0.4830    -0.2520 o          1 K4G      -0.473000
     54 C06         -4.7770     0.0590    -0.2300 c3         1 K4G      -0.075400
@<TRIPOS>BOND
     1     1    12 1   
     2     1    13 1   
     3     1    22 1   
     4     1    23 1   
     5     2    15 1   
     6     2    18 1   
     7     2    20 2   
     8     3    17 1   
     9     3    21 1   
    10     3    24 1   
    11     3    25 1   
    12     4    16 1   
    13     4    21 1   
    14     4    53 2   
    15     5     6 1   
    16     5    26 1   
    17     5    27 1   
    18     5    28 1   
    19     6     7 1   
    20     6    29 1   
    21     6    30 1   
    22     7     8 1   
    23     7    31 1   
    24     7    32 1   
    25     8     9 1   
    26     8    33 1   
    27     8    34 1   
    28     9    35 1   
    29     9    36 1   
    30     9    54 1   
    31    10    11 1   
    32    10    39 1   
    33    10    40 1   
    34    10    54 1   
    35    11    12 1   
    36    11    41 1   
    37    11    42 1   
    38    12    43 1   
    39    12    44 1   
    40    13    14 1   
    41    13    45 1   
    42    13    46 1   
    43    14    15 1   
    44    14    19 2   
    45    15    47 1   
    46    15    48 1   
    47    16    17 1   
    48    16    18 1   
    49    16    49 1   
    50    17    50 1   
    51    17    51 1   
    52    18    52 1   
    53    37    54 1   
    54    38    54 1   
@<TRIPOS>SUBSTRUCTURE
     1 K4G         1 TEMP              0 ****  ****    0 ROOT
