@<TRIPOS>MOLECULE
K4H
   49    51     1     0     0
SMALL
bcc


@<TRIPOS>ATOM
      1 C1          -0.8940     4.7330    13.3440 c3         1 K4H       0.093000
      2 C2          -0.6450     5.8040    14.4150 c3         1 K4H       0.152800
      3 C3          -0.7640     8.1390    14.9550 c3         1 K4H       0.229100
      4 C4          -1.3830     9.4540    14.5510 ca         1 K4H      -0.094300
      5 C7          -2.5800    11.8960    13.8870 ca         1 K4H      -0.127000
      6 C10         -0.0400     7.4590    12.7340 c3         1 K4H       0.178800
      7 C12         -1.2260     5.8130    11.1590 c3         1 K4H       0.096000
      8 C13         -3.6950     4.7580    13.8180 ca         1 K4H      -0.080600
      9 C16         -4.8960     3.6450    16.0390 ca         1 K4H      -0.262500
     10 O2          -4.7320     1.8790    17.9880 o          1 K4H      -0.615800
     11 S           -5.6240     2.9100    17.4770 sy         1 K4H       1.269200
     12 O1          -6.0250     3.9860    18.3730 o          1 K4H      -0.615800
     13 N2          -6.9080     2.1160    16.8150 n8         1 K4H      -0.898700
     14 C15         -4.3750     2.8100    15.0580 ca         1 K4H      -0.034000
     15 C14         -3.7710     3.3730    13.9490 ca         1 K4H      -0.122000
     16 C17         -4.8260     5.0240    15.9270 ca         1 K4H      -0.034000
     17 C18         -4.2330     5.5770    14.8010 ca         1 K4H      -0.122000
     18 C           -3.1270     5.3870    12.5810 c          1 K4H       0.680700
     19 O           -3.8640     6.0500    11.8650 o          1 K4H      -0.587100
     20 N           -1.8290     5.1540    12.3120 n          1 K4H      -0.439800
     21 C11         -0.8080     7.2530    11.4320 c3         1 K4H      -0.103400
     22 N1          -0.8450     7.1430    13.9100 n3         1 K4H      -0.748600
     23 C9          -2.5660     9.4890    13.8130 ca         1 K4H      -0.118000
     24 C8          -3.1600    10.6990    13.4840 ca         1 K4H      -0.131000
     25 C6          -1.4000    11.8720    14.6170 ca         1 K4H      -0.131000
     26 C5          -0.8060    10.6580    14.9430 ca         1 K4H      -0.118000
     27 H1          -1.2290     3.8160    13.8260 h1         1 K4H       0.056200
     28 H2           0.0340     4.4760    12.8360 h1         1 K4H       0.056200
     29 H3           0.3670     5.6420    14.8200 h1         1 K4H       0.037700
     30 H4          -1.3410     5.6540    15.2440 h1         1 K4H       0.037700
     31 H5          -1.3080     7.7570    15.8260 h1         1 K4H       0.037700
     32 H6           0.2680     8.3130    15.3000 h1         1 K4H       0.037700
     33 H7          -3.0430    12.8400    13.6310 ha         1 K4H       0.130000
     34 H8           0.8970     6.8830    12.7260 h1         1 K4H       0.035700
     35 H9           0.2590     8.5080    12.7810 h1         1 K4H       0.035700
     36 H10         -1.9210     5.7760    10.3220 h1         1 K4H       0.056200
     37 H11         -0.3570     5.2180    10.8730 h1         1 K4H       0.056200
     38 H12         -7.2240     1.3530    17.4060 hn         1 K4H       0.421800
     39 H13         -7.6800     2.7340    16.5880 hn         1 K4H       0.421800
     40 H14         -4.4440     1.7340    15.1460 ha         1 K4H       0.157000
     41 H15         -3.3680     2.7300    13.1760 ha         1 K4H       0.148500
     42 H16         -5.2350     5.6670    16.6930 ha         1 K4H       0.157000
     43 H17         -4.1860     6.6540    14.7010 ha         1 K4H       0.148500
     44 H18         -0.1860     7.5850    10.5970 hc         1 K4H       0.058200
     45 H19         -1.6890     7.8960    11.4440 hc         1 K4H       0.058200
     46 H21         -3.0140     8.5590    13.4870 ha         1 K4H       0.137000
     47 H22         -4.0790    10.7080    12.9110 ha         1 K4H       0.131000
     48 H23         -0.9340    12.7990    14.9260 ha         1 K4H       0.131000
     49 H24          0.1190    10.6490    15.5080 ha         1 K4H       0.137000
@<TRIPOS>BOND
     1     1     2 1   
     2     1    20 1   
     3     1    27 1   
     4     1    28 1   
     5     2    22 1   
     6     2    29 1   
     7     2    30 1   
     8     3     4 1   
     9     3    22 1   
    10     3    31 1   
    11     3    32 1   
    12     4    23 ar  
    13     4    26 ar  
    14     5    24 ar  
    15     5    25 ar  
    16     5    33 1   
    17     6    21 1   
    18     6    22 1   
    19     6    34 1   
    20     6    35 1   
    21     7    20 1   
    22     7    21 1   
    23     7    36 1   
    24     7    37 1   
    25     8    15 ar  
    26     8    17 ar  
    27     8    18 1   
    28     9    11 1   
    29     9    14 ar  
    30     9    16 ar  
    31    10    11 2   
    32    11    12 2   
    33    11    13 1   
    34    13    38 1   
    35    13    39 1   
    36    14    15 ar  
    37    14    40 1   
    38    15    41 1   
    39    16    17 ar  
    40    16    42 1   
    41    17    43 1   
    42    18    19 2   
    43    18    20 1   
    44    21    44 1   
    45    21    45 1   
    46    23    24 ar  
    47    23    46 1   
    48    24    47 1   
    49    25    26 ar  
    50    25    48 1   
    51    26    49 1   
@<TRIPOS>SUBSTRUCTURE
     1 K4H         1 TEMP              0 ****  ****    0 ROOT
