@<TRIPOS>MOLECULE
K4H
   49    51     1     0     0
SMALL
No Charge or Current Charge


@<TRIPOS>ATOM
      1 C1          -1.0850     5.0080    13.7670 c3         1 K4H       0.093000
      2 C2          -0.8240     6.2560    14.6510 c3         1 K4H       0.152800
      3 C3          -0.5170     8.6830    14.9390 c3         1 K4H       0.229100
      4 C4          -0.8960    10.0740    14.4330 ca         1 K4H      -0.094300
      5 C7          -1.6040    12.6410    13.4980 ca         1 K4H      -0.109000
      6 C10         -0.1620     7.6800    12.6910 c3         1 K4H       0.178800
      7 C12         -1.4120     5.7780    11.4040 c3         1 K4H       0.096000
      8 C13         -4.0330     4.4000    13.9280 ca         1 K4H      -0.080600
      9 C16         -5.2550     2.9020    16.0000 ca         1 K4H      -0.262500
     10 O2          -5.1430     0.8830    17.7780 o          1 K4H      -0.545000
     11 S           -6.0230     1.9560    17.3200 sy         1 K4H       1.127600
     12 O1          -6.7330     2.8330    18.2490 o          1 K4H      -0.545000
     13 N2          -7.2240     1.1610    16.5560 n8         1 K4H      -1.009100
     14 C15         -4.2020     2.3430    15.2470 ca         1 K4H      -0.016000
     15 C14         -3.6030     3.0840    14.2150 ca         1 K4H      -0.104000
     16 C17         -5.7130     4.2000    15.6980 ca         1 K4H      -0.016000
     17 C18         -5.1110     4.9360    14.6630 ca         1 K4H      -0.104000
     18 C           -3.4280     5.2050    12.7970 c          1 K4H       0.613700
     19 O           -4.1620     5.7720    11.9940 o          1 K4H      -0.587100
     20 N           -2.0200     5.2240    12.6330 n          1 K4H      -0.372800
     21 C11         -1.0520     7.2740    11.4960 c3         1 K4H      -0.103400
     22 N1          -0.8700     7.5940    13.9950 n3         1 K4H      -0.748600
     23 C9          -2.2350    10.3700    14.1080 ca         1 K4H      -0.100000
     24 C8          -2.5880    11.6480    13.6410 ca         1 K4H      -0.113000
     25 C6          -0.2670    12.3540    13.8210 ca         1 K4H      -0.113000
     26 C5           0.0860    11.0750    14.2870 ca         1 K4H      -0.100000
     27 H1          -1.4070     4.1870    14.4130 h1         1 K4H       0.056200
     28 H2          -0.1200     4.6960    13.3470 h1         1 K4H       0.056200
     29 H3           0.1490     6.1140    15.1400 h1         1 K4H       0.037700
     30 H4          -1.5770     6.2430    15.4510 h1         1 K4H       0.037700
     31 H5          -1.0390     8.5290    15.8940 h1         1 K4H       0.037700
     32 H6           0.5590     8.6540    15.1590 h1         1 K4H       0.037700
     33 H7          -1.8770    13.6300    13.1360 ha         1 K4H       0.112000
     34 H8           0.7510     7.0690    12.7010 h1         1 K4H       0.035700
     35 H9           0.1590     8.7130    12.5010 h1         1 K4H       0.035700
     36 H10         -2.0900     5.6220    10.5540 h1         1 K4H       0.056200
     37 H11         -0.4980     5.2110    11.1830 h1         1 K4H       0.056200
     38 H12         -7.0320     0.2090    16.8570 hn         1 K4H       0.477000
     39 H13         -8.0130     1.4150    17.1450 hn         1 K4H       0.477000
     40 H14         -3.8510     1.3320    15.4520 ha         1 K4H       0.139000
     41 H15         -2.8130     2.6250    13.6230 ha         1 K4H       0.130500
     42 H16         -6.5360     4.6400    16.2580 ha         1 K4H       0.139000
     43 H17         -5.4770     5.9360    14.4380 ha         1 K4H       0.130500
     44 H18         -0.5420     7.5610    10.5690 hc         1 K4H       0.058200
     45 H19         -1.9770     7.8610    11.5350 hc         1 K4H       0.058200
     46 H21         -3.0000     9.6030    14.2130 ha         1 K4H       0.119000
     47 H22         -3.6240    11.8680    13.3900 ha         1 K4H       0.113000
     48 H23          0.4950    13.1220    13.7100 ha         1 K4H       0.113000
     49 H24          1.1240    10.8620    14.5340 ha         1 K4H       0.119000
@<TRIPOS>BOND
     1     1     2 1   
     2     1    20 1   
     3     1    27 1   
     4     1    28 1   
     5     2    22 1   
     6     2    29 1   
     7     2    30 1   
     8     3     4 1   
     9     3    22 1   
    10     3    31 1   
    11     3    32 1   
    12     4    23 ar  
    13     4    26 ar  
    14     5    24 ar  
    15     5    25 ar  
    16     5    33 1   
    17     6    21 1   
    18     6    22 1   
    19     6    34 1   
    20     6    35 1   
    21     7    20 1   
    22     7    21 1   
    23     7    36 1   
    24     7    37 1   
    25     8    15 ar  
    26     8    17 ar  
    27     8    18 1   
    28     9    11 1   
    29     9    14 ar  
    30     9    16 ar  
    31    10    11 2   
    32    11    12 2   
    33    11    13 1   
    34    13    38 1   
    35    13    39 1   
    36    14    15 ar  
    37    14    40 1   
    38    15    41 1   
    39    16    17 ar  
    40    16    42 1   
    41    17    43 1   
    42    18    19 2   
    43    18    20 1   
    44    21    44 1   
    45    21    45 1   
    46    23    24 ar  
    47    23    46 1   
    48    24    47 1   
    49    25    26 ar  
    50    25    48 1   
    51    26    49 1   
@<TRIPOS>SUBSTRUCTURE
     1 K4H         1 TEMP              0 ****  ****    0 ROOT
