@<TRIPOS>MOLECULE
K4I
   58    62     1     0     0
SMALL
No Charge or Current Charge


@<TRIPOS>ATOM
      1 C1         -11.8330   185.1260    13.0340 cc         1 K4I       0.469900
      2 C2         -12.2120   184.1290    15.1210 cd         1 K4I       0.201400
      3 C3         -10.9120   183.6630    15.1270 cc         1 K4I      -0.261400
      4 C4         -10.3210   182.8490    16.2720 c3         1 K4I      -0.012200
      5 C5          -9.5280   183.7210    17.2760 c3         1 K4I       0.169800
      6 N1         -12.6690   184.8770    14.0440 nd         1 K4I      -0.674300
      7 O1          -5.9510   180.5670    23.7900 os         1 K4I      -0.133100
      8 O2         -13.2750   185.1800    11.0180 oh         1 K4I      -0.656000
      9 N          -10.5180   184.6530    12.9590 n          1 K4I      -0.297300
     10 C           -9.9830   183.9290    14.0190 c          1 K4I       0.552200
     11 O           -8.8180   183.5480    14.0120 o          1 K4I      -0.558000
     12 C10         -7.2670   180.2250    23.9010 ca         1 K4I       0.110100
     13 C11         -7.8510   179.4890    24.9360 ca         1 K4I      -0.165000
     14 C12         -9.2350   179.2450    24.8600 ca         1 K4I       0.212000
     15 C13         -9.9950   179.7310    23.7730 ca         1 K4I      -0.186000
     16 C14         -9.3740   180.4710    22.7440 ca         1 K4I      -0.003000
     17 C15         -7.9910   180.6970    22.8510 ca         1 K4I      -0.263900
     18 C16         -7.8440   181.1470    19.6100 c6         1 K4I      -0.068400
     19 C17         -8.1580   181.9070    18.2980 c6         1 K4I       0.164800
     20 C18        -13.2020   183.8970    16.2370 c3         1 K4I      -0.050900
     21 C19        -12.3980   185.9590    11.8650 c6         1 K4I       0.142000
     22 C20        -11.3020   186.6220    11.0040 c6         1 K4I      -0.076400
     23 C21        -10.2700   185.5710    10.5790 c6         1 K4I      -0.093400
     24 C22         -9.5970   184.9630    11.8210 c6         1 K4I       0.089000
     25 C6          -8.5890   183.9910    19.5340 c6         1 K4I       0.164800
     26 C7          -8.2960   183.3010    20.8870 c6         1 K4I      -0.068400
     27 C8          -7.3150   182.1130    20.7030 c6         1 K4I      -0.090000
     28 C9          -7.0520   181.3920    22.0100 cc         1 K4I       0.406900
     29 F           -9.8430   178.5380    25.8380 f          1 K4I      -0.174000
     30 N2          -9.1180   183.0290    18.5250 n3         1 K4I      -0.727600
     31 N3          -5.8300   181.3260    22.5530 nd         1 K4I      -0.287700
     32 H1         -11.1100   182.3220    16.8200 hc         1 K4I       0.060700
     33 H2          -9.6740   182.0560    15.8790 hc         1 K4I       0.060700
     34 H3          -8.6460   184.1330    16.7670 h1         1 K4I       0.035700
     35 H4         -10.1700   184.5740    17.5370 h1         1 K4I       0.035700
     36 H5         -13.9350   184.7610    11.6170 ho         1 K4I       0.463000
     37 H7         -11.0620   179.5320    23.7310 ha         1 K4I       0.138000
     38 H8          -9.9580   180.8460    21.9060 ha         1 K4I       0.133000
     39 H9          -8.7530   180.6360    19.9490 hc         1 K4I       0.052950
     40 H10         -7.1030   180.3620    19.4100 hc         1 K4I       0.052950
     41 H11         -8.5660   181.1810    17.5810 h1         1 K4I       0.037950
     42 H12         -7.2200   182.2900    17.8700 h1         1 K4I       0.037950
     43 H13        -14.1270   184.4650    16.0860 hc         1 K4I       0.058033
     44 H14        -13.4740   182.8370    16.3030 hc         1 K4I       0.058033
     45 H15        -12.7850   184.2020    17.2030 hc         1 K4I       0.058033
     46 H16        -12.9830   186.7820    12.3020 h1         1 K4I       0.067700
     47 H17        -10.8090   187.4190    11.5790 hc         1 K4I       0.064700
     48 H18        -11.7480   187.1020    10.1220 hc         1 K4I       0.064700
     49 H19        -10.7580   184.7790     9.9940 hc         1 K4I       0.066200
     50 H20         -9.5110   186.0200     9.9230 hc         1 K4I       0.066200
     51 H21         -9.0640   184.0500    11.5170 h1         1 K4I       0.071200
     52 H22         -8.8380   185.6690    12.1870 h1         1 K4I       0.071200
     53 H23         -7.6660   184.4610    19.1630 h1         1 K4I       0.037950
     54 H24         -9.3150   184.7990    19.7060 h1         1 K4I       0.037950
     55 H25         -7.8730   184.0320    21.5890 hc         1 K4I       0.052950
     56 H26         -9.2420   182.9610    21.3260 hc         1 K4I       0.052950
     57 H27         -6.3640   182.5280    20.3390 hc         1 K4I       0.072700
     58 H6          -7.2600   179.1190    25.7680 ha         1 K4I       0.155000
@<TRIPOS>BOND
     1     1     6 2   
     2     1     9 1   
     3     1    21 1   
     4     2     3 2   
     5     2     6 1   
     6     2    20 1   
     7     3     4 1   
     8     3    10 1   
     9     4     5 1   
    10     4    32 1   
    11     4    33 1   
    12     5    30 1   
    13     5    34 1   
    14     5    35 1   
    15     7    12 1   
    16     7    31 1   
    17     8    21 1   
    18     8    36 1   
    19     9    10 1   
    20     9    24 1   
    21    10    11 2   
    22    12    13 ar  
    23    12    17 ar  
    24    13    14 ar  
    25    13    58 1   
    26    14    15 ar  
    27    14    29 1   
    28    15    16 ar  
    29    15    37 1   
    30    16    17 ar  
    31    16    38 1   
    32    17    28 1   
    33    18    19 1   
    34    18    27 1   
    35    18    39 1   
    36    18    40 1   
    37    19    30 1   
    38    19    41 1   
    39    19    42 1   
    40    20    43 1   
    41    20    44 1   
    42    20    45 1   
    43    21    22 1   
    44    21    46 1   
    45    22    23 1   
    46    22    47 1   
    47    22    48 1   
    48    23    24 1   
    49    23    49 1   
    50    23    50 1   
    51    24    51 1   
    52    24    52 1   
    53    25    26 1   
    54    25    30 1   
    55    25    53 1   
    56    25    54 1   
    57    26    27 1   
    58    26    55 1   
    59    26    56 1   
    60    27    28 1   
    61    27    57 1   
    62    28    31 2   
@<TRIPOS>SUBSTRUCTURE
     1 K4I         1 TEMP              0 ****  ****    0 ROOT
