@<TRIPOS>MOLECULE
K4I
   58    62     1     0     0
SMALL
abcg2


@<TRIPOS>ATOM
      1 C1         -11.6770   185.2090    13.0270 cc         1 K4I       0.469900
      2 C2         -12.1650   184.4270    15.1370 cd         1 K4I       0.201400
      3 C3         -10.9560   183.7910    15.2450 cc         1 K4I      -0.261400
      4 C4         -10.5310   183.0210    16.4610 c3         1 K4I      -0.012200
      5 C5          -9.7350   183.8940    17.4400 c3         1 K4I       0.169800
      6 N1         -12.5080   185.1500    14.0300 nd         1 K4I      -0.674300
      7 O1          -5.9370   180.6990    23.6130 os         1 K4I      -0.133100
      8 O2         -13.1910   185.2140    11.1690 oh         1 K4I      -0.656000
      9 N          -10.4710   184.5920    13.0270 n          1 K4I      -0.297300
     10 C          -10.0170   183.8870    14.1620 c          1 K4I       0.552200
     11 O           -8.8820   183.4010    14.1610 o          1 K4I      -0.558000
     12 C10         -7.1630   180.1460    23.7270 ca         1 K4I       0.110100
     13 C11         -7.5720   179.2420    24.7000 ca         1 K4I      -0.165000
     14 C12         -8.8830   178.8310    24.5840 ca         1 K4I       0.212000
     15 C13         -9.7610   179.2650    23.5840 ca         1 K4I      -0.186000
     16 C14         -9.3170   180.1650    22.6320 ca         1 K4I      -0.003000
     17 C15         -7.9940   180.6130    22.7070 ca         1 K4I      -0.263900
     18 C16         -7.8170   181.4140    19.5420 c6         1 K4I      -0.068400
     19 C17         -8.1800   182.2610    18.3290 c6         1 K4I       0.164800
     20 C18        -13.1960   184.3820    16.2280 c3         1 K4I      -0.050900
     21 C19        -12.1640   185.9810    11.8110 c6         1 K4I       0.142000
     22 C20        -11.0800   186.2640    10.7920 c6         1 K4I      -0.076400
     23 C21        -10.2300   185.0190    10.5870 c6         1 K4I      -0.093400
     24 C22         -9.5350   184.6490    11.8810 c6         1 K4I       0.089000
     25 C6          -8.9350   184.0750    19.7100 c6         1 K4I       0.164800
     26 C7          -8.6020   183.3140    20.9860 c6         1 K4I      -0.068400
     27 C8          -7.4650   182.3100    20.7380 c6         1 K4I      -0.090000
     28 C9          -7.1470   181.5070    21.9590 cc         1 K4I       0.406900
     29 F           -9.3580   177.9490    25.4940 f          1 K4I      -0.174000
     30 N2          -9.2940   183.1620    18.6240 n3         1 K4I      -0.727600
     31 N3          -5.9550   181.5610    22.4800 nd         1 K4I      -0.287700
     32 H1         -11.3990   182.6190    16.9830 hc         1 K4I       0.060700
     33 H2          -9.9210   182.1780    16.1370 hc         1 K4I       0.060700
     34 H3          -8.8810   184.3510    16.9130 h1         1 K4I       0.035700
     35 H4         -10.3760   184.7120    17.7740 h1         1 K4I       0.035700
     36 H5         -13.8630   185.0110    11.8350 ho         1 K4I       0.463000
     37 H7         -10.7730   178.8870    23.5740 ha         1 K4I       0.138000
     38 H8          -9.9860   180.5050    21.8540 ha         1 K4I       0.133000
     39 H9          -8.6620   180.7690    19.7950 hc         1 K4I       0.052950
     40 H10         -6.9710   180.7680    19.2970 hc         1 K4I       0.052950
     41 H11         -8.4590   181.6070    17.5040 h1         1 K4I       0.037950
     42 H12         -7.2950   182.8370    18.0040 h1         1 K4I       0.037950
     43 H13        -14.0540   184.9910    15.9520 hc         1 K4I       0.058033
     44 H14        -13.5330   183.3580    16.4020 hc         1 K4I       0.058033
     45 H15        -12.7890   184.7510    17.1720 hc         1 K4I       0.058033
     46 H16        -12.5890   186.9140    12.1910 h1         1 K4I       0.067700
     47 H17        -10.4560   187.0860    11.1540 hc         1 K4I       0.064700
     48 H18        -11.5520   186.5930     9.8650 hc         1 K4I       0.064700
     49 H19        -10.8540   184.1900    10.2460 hc         1 K4I       0.066200
     50 H20         -9.4640   185.1860     9.8280 hc         1 K4I       0.066200
     51 H21         -9.0610   183.6740    11.8190 h1         1 K4I       0.071200
     52 H22         -8.7580   185.3760    12.1270 h1         1 K4I       0.071200
     53 H23         -8.0750   184.7070    19.4240 h1         1 K4I       0.037950
     54 H24         -9.7800   184.7420    19.8910 h1         1 K4I       0.037950
     55 H25         -8.3130   184.0190    21.7690 hc         1 K4I       0.052950
     56 H26         -9.4950   182.7880    21.3310 hc         1 K4I       0.052950
     57 H27         -6.5630   182.8740    20.4850 hc         1 K4I       0.072700
     58 H6          -6.9250   178.8830    25.4870 ha         1 K4I       0.155000
@<TRIPOS>BOND
     1     1     6 2   
     2     1     9 1   
     3     1    21 1   
     4     2     3 2   
     5     2     6 1   
     6     2    20 1   
     7     3     4 1   
     8     3    10 1   
     9     4     5 1   
    10     4    32 1   
    11     4    33 1   
    12     5    30 1   
    13     5    34 1   
    14     5    35 1   
    15     7    12 1   
    16     7    31 1   
    17     8    21 1   
    18     8    36 1   
    19     9    10 1   
    20     9    24 1   
    21    10    11 2   
    22    12    13 ar  
    23    12    17 ar  
    24    13    14 ar  
    25    13    58 1   
    26    14    15 ar  
    27    14    29 1   
    28    15    16 ar  
    29    15    37 1   
    30    16    17 ar  
    31    16    38 1   
    32    17    28 1   
    33    18    19 1   
    34    18    27 1   
    35    18    39 1   
    36    18    40 1   
    37    19    30 1   
    38    19    41 1   
    39    19    42 1   
    40    20    43 1   
    41    20    44 1   
    42    20    45 1   
    43    21    22 1   
    44    21    46 1   
    45    22    23 1   
    46    22    47 1   
    47    22    48 1   
    48    23    24 1   
    49    23    49 1   
    50    23    50 1   
    51    24    51 1   
    52    24    52 1   
    53    25    26 1   
    54    25    30 1   
    55    25    53 1   
    56    25    54 1   
    57    26    27 1   
    58    26    55 1   
    59    26    56 1   
    60    27    28 1   
    61    27    57 1   
    62    28    31 2   
@<TRIPOS>SUBSTRUCTURE
     1 K4I         1 TEMP              0 ****  ****    0 ROOT
