@<TRIPOS>MOLECULE
K4K
   41    43     1     0     0
SMALL
abcg2


@<TRIPOS>ATOM
      1 C1          -2.0580    -0.3380     0.2850 c          1 K4K       0.555000
      2 C3          -0.9810     0.7480     0.4110 c5         1 K4K       0.009000
      3 C8           5.1920     0.5750     0.3960 cc         1 K4K      -0.212300
      4 C10         -4.4520    -0.3840    -0.2170 ca         1 K4K      -0.028000
      5 C11          7.3530    -0.6070     0.0740 cc         1 K4K      -0.233000
      6 C13          6.0510     1.2420    -0.4260 cd         1 K4K      -0.125000
      7 C14          7.2900     0.5670    -0.6110 cd         1 K4K      -0.132000
      8 C16          3.8040     0.9600     0.7890 c3         1 K4K      -0.021100
      9 C19         -5.6050     0.2960     0.1700 ca         1 K4K      -0.127500
     10 C20         -6.8460    -0.3150     0.0600 ca         1 K4K      -0.093000
     11 C21         -5.8010    -2.2820    -0.8230 ca         1 K4K      -0.093000
     12 C22         -6.9510    -1.6090    -0.4310 ca         1 K4K      -0.124000
     13 N2          -3.2040     0.2590    -0.1220 n          1 K4K      -0.219400
     14 C4           0.3280     0.2530    -0.2000 c          1 K4K       0.593100
     15 C5          -3.0760     1.7070    -0.2390 c5         1 K4K       0.102000
     16 C6          -1.5730     1.9060    -0.3810 c5         1 K4K      -0.081400
     17 S7           5.9050    -0.8970     0.9480 ss         1 K4K       0.189000
     18 O9          -1.9020    -1.5010     0.5910 o          1 K4K      -0.516000
     19 O12          0.3150    -0.2920    -1.2940 o          1 K4K      -0.586100
     20 N15          1.4270     0.4890     0.5160 ns         1 K4K      -0.496900
     21 C17          2.7530     0.1000     0.0910 c3         1 K4K       0.104000
     22 C18         -4.5570    -1.6790    -0.7250 ca         1 K4K      -0.127500
     23 O23         -0.8810     1.1230     1.7620 oh         1 K4K      -0.651000
     24 H1           8.1680    -1.3110     0.1190 h4         1 K4K       0.151000
     25 H2           5.8040     2.1900    -0.8840 ha         1 K4K       0.133000
     26 H3           8.0970     0.9430    -1.2230 ha         1 K4K       0.135000
     27 H4           3.6820     0.8840     1.8730 hc         1 K4K       0.055200
     28 H5           3.6500     2.0080     0.5250 hc         1 K4K       0.055200
     29 H6          -5.5450     1.3020     0.5640 ha         1 K4K       0.126000
     30 H7          -7.7320     0.2260     0.3630 ha         1 K4K       0.114500
     31 H8          -5.8710    -3.2860    -1.2230 ha         1 K4K       0.114500
     32 H9          -7.9190    -2.0840    -0.5180 ha         1 K4K       0.115000
     33 H10         -3.6280     2.0670    -1.1070 h1         1 K4K       0.058200
     34 H11         -3.4670     2.2080     0.6490 h1         1 K4K       0.058200
     35 H12         -1.2360     2.8730    -0.0120 hc         1 K4K       0.080200
     36 H13         -1.2900     1.8230    -1.4310 hc         1 K4K       0.080200
     37 H14          1.3210     0.9240     1.4200 hn         1 K4K       0.324500
     38 H15          2.8360     0.2220    -0.9890 h1         1 K4K       0.062200
     39 H16          2.9260    -0.9580     0.3110 h1         1 K4K       0.062200
     40 H17         -3.6800    -2.2120    -1.0610 ha         1 K4K       0.126000
     41 H18         -0.7910     0.3350     2.3130 ho         1 K4K       0.466000
@<TRIPOS>BOND
     1     1     2 1   
     2     1    13 1   
     3     1    18 2   
     4     2    14 1   
     5     2    16 1   
     6     2    23 1   
     7     3     6 2   
     8     3     8 1   
     9     3    17 1   
    10     4     9 ar  
    11     4    13 1   
    12     4    22 ar  
    13     5     7 2   
    14     5    17 1   
    15     5    24 1   
    16     6     7 1   
    17     6    25 1   
    18     7    26 1   
    19     8    21 1   
    20     8    27 1   
    21     8    28 1   
    22     9    10 ar  
    23     9    29 1   
    24    10    12 ar  
    25    10    30 1   
    26    11    12 ar  
    27    11    22 ar  
    28    11    31 1   
    29    12    32 1   
    30    13    15 1   
    31    14    19 2   
    32    14    20 1   
    33    15    16 1   
    34    15    33 1   
    35    15    34 1   
    36    16    35 1   
    37    16    36 1   
    38    20    21 1   
    39    20    37 1   
    40    21    38 1   
    41    21    39 1   
    42    22    40 1   
    43    23    41 1   
@<TRIPOS>SUBSTRUCTURE
     1 K4K         1 TEMP              0 ****  ****    0 ROOT
