@<TRIPOS>MOLECULE
K4K
   41    43     1     0     0
SMALL
No Charge or Current Charge


@<TRIPOS>ATOM
      1 C1          -2.0780    -0.2250     0.5000 c          1 K4K       0.555000
      2 C3          -1.0040     0.8900     0.5040 c5         1 K4K       0.009000
      3 C8           5.2150     0.4310     0.3880 cc         1 K4K      -0.212300
      4 C10         -4.4770    -0.3400    -0.3020 ca         1 K4K      -0.028000
      5 C11          7.3750    -0.7750    -0.0740 cc         1 K4K      -0.233000
      6 C13          6.1320     1.1900    -0.2930 cd         1 K4K      -0.125000
      7 C14          7.3510     0.5100    -0.5550 cd         1 K4K      -0.132000
      8 C16          3.8310     0.8300     0.8290 c3         1 K4K      -0.021100
      9 C19         -5.7060     0.2660     0.0410 ca         1 K4K      -0.127500
     10 C20         -6.9160    -0.4420    -0.0760 ca         1 K4K      -0.093000
     11 C21         -5.6890    -2.4170    -0.7740 ca         1 K4K      -0.093000
     12 C22         -6.9090    -1.7810    -0.4940 ca         1 K4K      -0.124000
     13 N2          -3.2440     0.3590    -0.0310 n          1 K4K      -0.219400
     14 C4           0.2200     0.2560    -0.2470 c          1 K4K       0.593100
     15 C5          -3.1380     1.8220    -0.1950 c5         1 K4K       0.102000
     16 C6          -1.6100     2.0310    -0.3710 c5         1 K4K      -0.081400
     17 S7           5.8610    -1.1750     0.7310 ss         1 K4K       0.189000
     18 O9          -1.9730    -1.3710     0.9230 o          1 K4K      -0.516000
     19 O12          0.1960    -0.4630    -1.2370 o          1 K4K      -0.586100
     20 N15          1.3900     0.6360     0.3700 ns         1 K4K      -0.496900
     21 C17          2.7290     0.2350    -0.0670 c3         1 K4K       0.104000
     22 C18         -4.4810    -1.7080    -0.6540 ca         1 K4K      -0.127500
     23 O23         -0.7090     1.3390     1.8650 oh         1 K4K      -0.651000
     24 H1           8.1640    -1.5140    -0.1290 h4         1 K4K       0.151000
     25 H2           5.9450     2.2140    -0.6050 ha         1 K4K       0.133000
     26 H3           8.1840     0.9620    -1.0850 ha         1 K4K       0.135000
     27 H4           3.6670     0.5040     1.8640 hc         1 K4K       0.055200
     28 H5           3.7430     1.9230     0.8280 hc         1 K4K       0.055200
     29 H6          -5.7350     1.2920     0.3990 ha         1 K4K       0.126000
     30 H7          -7.8570     0.0450     0.1700 ha         1 K4K       0.114500
     31 H8          -5.6780    -3.4620    -1.0760 ha         1 K4K       0.114500
     32 H9          -7.8430    -2.3310    -0.5820 ha         1 K4K       0.115000
     33 H10         -3.7060     2.1860    -1.0610 h1         1 K4K       0.058200
     34 H11         -3.5070     2.3330     0.7040 h1         1 K4K       0.058200
     35 H12         -1.2810     3.0310    -0.0660 hc         1 K4K       0.080200
     36 H13         -1.3390     1.9150    -1.4270 hc         1 K4K       0.080200
     37 H14          1.2880     1.2480     1.1740 hn         1 K4K       0.324500
     38 H15          2.8800     0.5720    -1.1010 h1         1 K4K       0.062200
     39 H16          2.7940    -0.8610    -0.0500 h1         1 K4K       0.062200
     40 H17         -3.5500    -2.2250    -0.8710 ha         1 K4K       0.126000
     41 H18         -0.6750     0.5440     2.4480 ho         1 K4K       0.466000
@<TRIPOS>BOND
     1     1     2 1   
     2     1    13 1   
     3     1    18 2   
     4     2    14 1   
     5     2    16 1   
     6     2    23 1   
     7     3     6 2   
     8     3     8 1   
     9     3    17 1   
    10     4     9 ar  
    11     4    13 1   
    12     4    22 ar  
    13     5     7 2   
    14     5    17 1   
    15     5    24 1   
    16     6     7 1   
    17     6    25 1   
    18     7    26 1   
    19     8    21 1   
    20     8    27 1   
    21     8    28 1   
    22     9    10 ar  
    23     9    29 1   
    24    10    12 ar  
    25    10    30 1   
    26    11    12 ar  
    27    11    22 ar  
    28    11    31 1   
    29    12    32 1   
    30    13    15 1   
    31    14    19 2   
    32    14    20 1   
    33    15    16 1   
    34    15    33 1   
    35    15    34 1   
    36    16    35 1   
    37    16    36 1   
    38    20    21 1   
    39    20    37 1   
    40    21    38 1   
    41    21    39 1   
    42    22    40 1   
    43    23    41 1   
@<TRIPOS>SUBSTRUCTURE
     1 K4K         1 TEMP              0 ****  ****    0 ROOT
