@<TRIPOS>MOLECULE
K4L
   37    39     1     0     0
SMALL
No Charge or Current Charge


@<TRIPOS>ATOM
      1 N1          16.9220    36.4940   -17.2920 ne         1 K4L      -0.640100
      2 C4          14.6980    36.7020   -15.5780 c2         1 K4L      -0.118200
      3 C5          14.5920    35.7860   -16.7910 c6         1 K4L      -0.169500
      4 C6          15.6820    36.1590   -17.8140 c          1 K4L       0.688500
      5 C8          15.9540    38.1960   -14.1040 ca         1 K4L      -0.003800
      6 C10         15.4690    38.6700   -11.7700 ca         1 K4L       0.336400
      7 C13         16.6370    39.4260   -14.1380 ca         1 K4L      -0.157000
      8 C17         12.3020    34.8450   -13.7440 ca         1 K4L      -0.112000
      9 C20         14.3170    34.2600   -11.8760 ca         1 K4L      -0.109000
     10 C21         14.4530    33.8440   -13.2120 ca         1 K4L      -0.112000
     11 C2          17.0310    37.1660   -16.1810 cf         1 K4L       0.548500
     12 C3          15.8680    37.3320   -15.2970 cf         1 K4L      -0.213800
     13 O7          15.4270    36.2370   -19.0050 o          1 K4L      -0.489100
     14 C9          15.3620    37.8220   -12.8840 ca         1 K4L      -0.157000
     15 N11         16.1250    39.8540   -11.8070 nb         1 K4L      -0.660000
     16 C12         16.6960    40.2170   -12.9780 ca         1 K4L       0.336400
     17 C14         14.7680    34.2890   -16.3770 c3         1 K4L      -0.054400
     18 C16         13.4480    34.1360   -14.1560 ca         1 K4L      -0.083300
     19 C18         12.1680    35.2670   -12.4100 ca         1 K4L      -0.109000
     20 C19         13.1750    34.9730   -11.4750 ca         1 K4L      -0.116000
     21 H1          13.8110    36.8340   -14.9550 ha         1 K4L       0.200000
     22 H2          13.6170    35.8870   -17.2870 hc         1 K4L       0.096700
     23 H3          15.0190    38.3930   -10.8180 h4         1 K4L       0.021100
     24 H4          17.1090    39.7810   -15.0490 ha         1 K4L       0.129000
     25 H5          12.6580    33.8360   -16.1570 hc         1 K4L       0.054200
     26 H6          13.7220    32.5700   -15.5950 hc         1 K4L       0.054200
     27 H8          15.0960    34.0300   -11.1530 ha         1 K4L       0.116000
     28 H9          15.3380    33.2870   -13.5110 ha         1 K4L       0.113000
     29 H10         17.9900    37.5930   -15.8740 h4         1 K4L       0.030800
     30 H11         14.8310    36.8810   -12.7880 ha         1 K4L       0.129000
     31 H12         17.2160    41.1740   -12.9870 h4         1 K4L       0.021100
     32 H13         14.9030    33.6910   -17.2870 hc         1 K4L       0.058200
     33 H14         15.6930    34.1590   -15.8020 hc         1 K4L       0.058200
     34 H15         11.2820    35.8170   -12.1000 ha         1 K4L       0.116000
     35 H16         13.0690    35.2960   -10.4410 ha         1 K4L       0.116000
     36 C15         13.5850    33.6580   -15.5990 c3         1 K4L      -0.033100
     37 H7          11.5130    35.0720   -14.4580 ha         1 K4L       0.113000
@<TRIPOS>BOND
     1     1     4 1   
     2     1    11 2   
     3     2     3 1   
     4     2    12 2   
     5     2    21 1   
     6     3     4 1   
     7     3    17 1   
     8     3    22 1   
     9     4    13 2   
    10     5     7 ar  
    11     5    12 1   
    12     5    14 ar  
    13     6    14 ar  
    14     6    15 ar  
    15     6    23 1   
    16     7    16 ar  
    17     7    24 1   
    18     8    18 ar  
    19     8    19 ar  
    20     8    37 1   
    21     9    10 ar  
    22     9    20 ar  
    23     9    27 1   
    24    10    18 ar  
    25    10    28 1   
    26    11    12 1   
    27    11    29 1   
    28    14    30 1   
    29    15    16 ar  
    30    16    31 1   
    31    17    32 1   
    32    17    33 1   
    33    17    36 1   
    34    18    36 1   
    35    19    20 ar  
    36    19    34 1   
    37    20    35 1   
    38    25    36 1   
    39    26    36 1   
@<TRIPOS>SUBSTRUCTURE
     1 K4L         1 TEMP              0 ****  ****    0 ROOT
