@<TRIPOS>MOLECULE
K4L
   37    39     1     0     0
SMALL
bcc


@<TRIPOS>ATOM
      1 N1          16.9710    36.5490   -17.2500 ne         1 K4L      -0.640100
      2 C4          14.6590    36.6790   -15.6160 c2         1 K4L      -0.068200
      3 C5          14.6300    35.7940   -16.8110 c6         1 K4L      -0.169500
      4 C6          15.7600    36.0890   -17.7700 c          1 K4L       0.688500
      5 C8          15.8750    38.1960   -14.0810 ca         1 K4L      -0.003800
      6 C10         15.2800    38.7650   -11.8320 ca         1 K4L       0.401700
      7 C13         16.6730    39.3370   -14.0760 ca         1 K4L      -0.240300
      8 C17         12.3450    34.8410   -13.6620 ca         1 K4L      -0.130000
      9 C20         14.4600    34.3040   -11.9600 ca         1 K4L      -0.127000
     10 C21         14.5290    33.9340   -13.2950 ca         1 K4L      -0.130000
     11 C2          16.9540    37.1260   -16.1070 cf         1 K4L       0.548500
     12 C3          15.7780    37.3310   -15.2670 cf         1 K4L      -0.213800
     13 O7          15.6620    35.8800   -18.9560 o          1 K4L      -0.489100
     14 C9          15.1660    37.9120   -12.9160 ca         1 K4L      -0.240300
     15 N11         16.0390    39.8560   -11.8280 nb         1 K4L      -0.660000
     16 C12         16.7180    40.1250   -12.9360 ca         1 K4L       0.401700
     17 C14         14.7230    34.2920   -16.4180 c3         1 K4L      -0.054400
     18 C16         13.4730    34.1990   -14.1680 ca         1 K4L      -0.083300
     19 C18         12.2710    35.2150   -12.3260 ca         1 K4L      -0.127000
     20 C19         13.3290    34.9460   -11.4690 ca         1 K4L      -0.134000
     21 H1          13.7510    36.7790   -15.0360 ha         1 K4L       0.150000
     22 H2          13.6860    35.9290   -17.3450 hc         1 K4L       0.096700
     23 H3          14.7340    38.5500   -10.9200 h4         1 K4L       0.021100
     24 H4          17.2450    39.6350   -14.9460 ha         1 K4L       0.147000
     25 H5          12.6070    34.0440   -16.1150 hc         1 K4L       0.054200
     26 H6          13.5850    32.6770   -15.6440 hc         1 K4L       0.054200
     27 H8          15.2910    34.0900   -11.3000 ha         1 K4L       0.134000
     28 H9          15.4150    33.4260   -13.6580 ha         1 K4L       0.131000
     29 H10         17.9110    37.4800   -15.7280 h4         1 K4L       0.030800
     30 H11         14.5490    37.0260   -12.8360 ha         1 K4L       0.147000
     31 H12         17.3320    41.0190   -12.9240 h4         1 K4L       0.021100
     32 H13         14.7740    33.7210   -17.3470 hc         1 K4L       0.058200
     33 H14         15.6600    34.1120   -15.8860 hc         1 K4L       0.058200
     34 H15         11.3850    35.7150   -11.9560 ha         1 K4L       0.134000
     35 H16         13.2760    35.2360   -10.4280 ha         1 K4L       0.134000
     36 C15         13.5360    33.7690   -15.6100 c3         1 K4L      -0.033100
     37 H7          11.5140    35.0550   -14.3250 ha         1 K4L       0.131000
@<TRIPOS>BOND
     1     1     4 1   
     2     1    11 2   
     3     2     3 1   
     4     2    12 2   
     5     2    21 1   
     6     3     4 1   
     7     3    17 1   
     8     3    22 1   
     9     4    13 2   
    10     5     7 ar  
    11     5    12 1   
    12     5    14 ar  
    13     6    14 ar  
    14     6    15 ar  
    15     6    23 1   
    16     7    16 ar  
    17     7    24 1   
    18     8    18 ar  
    19     8    19 ar  
    20     8    37 1   
    21     9    10 ar  
    22     9    20 ar  
    23     9    27 1   
    24    10    18 ar  
    25    10    28 1   
    26    11    12 1   
    27    11    29 1   
    28    14    30 1   
    29    15    16 ar  
    30    16    31 1   
    31    17    32 1   
    32    17    33 1   
    33    17    36 1   
    34    18    36 1   
    35    19    20 ar  
    36    19    34 1   
    37    20    35 1   
    38    25    36 1   
    39    26    36 1   
@<TRIPOS>SUBSTRUCTURE
     1 K4L         1 TEMP              0 ****  ****    0 ROOT
