@<TRIPOS>MOLECULE
K4N
   18    18     1     0     0
SMALL
No Charge or Current Charge


@<TRIPOS>ATOM
      1 S           31.6350    -0.5820    14.1170 sy         1 K4N       1.132600
      2 O1          31.0230    -1.7550    14.7360 o          1 K4N      -0.546500
      3 O2          35.9810    -2.2440    10.3880 oh         1 K4N      -0.523100
      4 N           32.4920     0.0990    15.3300 n8         1 K4N      -1.000100
      5 C           32.9410    -1.0890    13.0020 ca         1 K4N      -0.322500
      6 O           30.8580     0.5120    13.5350 o          1 K4N      -0.546500
      7 C1          33.4640    -2.3970    13.0680 ca         1 K4N       0.033500
      8 C2          34.4890    -2.7840    12.1860 ca         1 K4N      -0.202500
      9 C3          34.9890    -1.8730    11.2440 ca         1 K4N       0.197100
     10 C4          34.4690    -0.5740    11.1780 ca         1 K4N      -0.202500
     11 C5          33.4450    -0.1760    12.0530 ca         1 K4N       0.033500
     12 H1          36.2160    -3.1770    10.5770 ho         1 K4N       0.473000
     13 H2          32.1170    -0.4000    16.1330 hn         1 K4N       0.470500
     14 H3          33.4130    -0.3090    15.1970 hn         1 K4N       0.470500
     15 H4          33.0830    -3.1150    13.7930 ha         1 K4N       0.138500
     16 H5          34.8870    -3.7940    12.2430 ha         1 K4N       0.128000
     17 H6          34.8590     0.1290    10.4460 ha         1 K4N       0.128000
     18 H7          33.0500     0.8380    11.9920 ha         1 K4N       0.138500
@<TRIPOS>BOND
     1     1     2 2   
     2     1     4 1   
     3     1     5 1   
     4     1     6 2   
     5     3     9 1   
     6     3    12 1   
     7     4    13 1   
     8     4    14 1   
     9     5     7 ar  
    10     5    11 ar  
    11     7     8 ar  
    12     7    15 1   
    13     8     9 ar  
    14     8    16 1   
    15     9    10 ar  
    16    10    11 ar  
    17    10    17 1   
    18    11    18 1   
@<TRIPOS>SUBSTRUCTURE
     1 K4N         1 TEMP              0 ****  ****    0 ROOT
