@<TRIPOS>MOLECULE
K4N
   18    18     1     0     0
SMALL
bcc


@<TRIPOS>ATOM
      1 S           31.7320    -0.7550    14.1650 sy         1 K4N       1.274200
      2 O1          31.1780    -1.9830    14.7220 o          1 K4N      -0.617300
      3 O2          35.9310    -2.1330    10.3080 oh         1 K4N      -0.484100
      4 N           32.5900     0.1210    15.2750 n8         1 K4N      -0.889700
      5 C           32.9920    -1.1960    13.0190 ca         1 K4N      -0.322500
      6 O           30.8120     0.1920    13.5490 o          1 K4N      -0.617300
      7 C1          33.4800    -2.4940    12.9830 ca         1 K4N       0.015500
      8 C2          34.4710    -2.8290    12.0770 ca         1 K4N      -0.220500
      9 C3          34.9730    -1.8650    11.2040 ca         1 K4N       0.197100
     10 C4          34.4730    -0.5600    11.2440 ca         1 K4N      -0.220500
     11 C5          33.4870    -0.2280    12.1490 ca         1 K4N       0.015500
     12 H1          36.2130    -3.0530    10.3710 ho         1 K4N       0.434000
     13 H2          31.9730     0.6760    15.8630 hn         1 K4N       0.415300
     14 H3          33.1860    -0.4620    15.8540 hn         1 K4N       0.415300
     15 H4          33.0970    -3.2510    13.6530 ha         1 K4N       0.156500
     16 H5          34.8500    -3.8430    12.0510 ha         1 K4N       0.146000
     17 H6          34.8610     0.1850    10.5620 ha         1 K4N       0.146000
     18 H7          33.1100     0.7850    12.1710 ha         1 K4N       0.156500
@<TRIPOS>BOND
     1     1     2 2   
     2     1     4 1   
     3     1     5 1   
     4     1     6 2   
     5     3     9 1   
     6     3    12 1   
     7     4    13 1   
     8     4    14 1   
     9     5     7 ar  
    10     5    11 ar  
    11     7     8 ar  
    12     7    15 1   
    13     8     9 ar  
    14     8    16 1   
    15     9    10 ar  
    16    10    11 ar  
    17    10    17 1   
    18    11    18 1   
@<TRIPOS>SUBSTRUCTURE
     1 K4N         1 TEMP              0 ****  ****    0 ROOT
