@<TRIPOS>MOLECULE
K4O
   31    33     1     0     0
SMALL
No Charge or Current Charge


@<TRIPOS>ATOM
      1 C1         -24.6790     7.9140    13.1880 cc         1 K4O       0.450300
      2 C3         -27.3640    10.9250    11.8300 cc         1 K4O       0.555200
      3 C5         -26.2910     9.4440    17.1040 c3         1 K4O       0.284100
      4 C6         -24.9030    10.0530    17.2860 ca         1 K4O      -0.162300
      5 C7         -23.8060     9.2620    17.6900 ca         1 K4O       0.176000
      6 C8         -22.5330     9.8340    17.8530 ca         1 K4O      -0.148000
      7 C9         -22.3420    11.2060    17.6180 ca         1 K4O      -0.076000
      8 C10        -23.4290    12.0040    17.2230 ca         1 K4O      -0.121000
      9 C11        -24.7030    11.4320    17.0600 ca         1 K4O      -0.070000
     10 C12        -25.2460     8.2850    14.4580 cc         1 K4O      -0.334000
     11 N1         -26.4620    10.0980    11.1970 nc         1 K4O      -0.398300
     12 C4         -26.2070     9.2650    14.5680 cd         1 K4O       0.411000
     13 N          -25.0010     8.4460    12.0100 nd         1 K4O      -0.685000
     14 C2         -25.9680     9.4100    12.1930 cd         1 K4O       0.454500
     15 C          -23.6370     6.8350    13.2120 c3         1 K4O      -0.153400
     16 F          -23.9610     7.9400    17.9280 f          1 K4O      -0.182000
     17 N4         -26.7860     9.6820    15.7380 nu         1 K4O      -0.960200
     18 N3         -26.5690     9.8280    13.3450 na         1 K4O       0.031900
     19 N2         -27.4890    10.8270    13.1570 nd         1 K4O      -0.642100
     20 H1         -27.9310    11.6230    11.2250 h5         1 K4O       0.069800
     21 H2         -26.9740     9.8970    17.8370 h1         1 K4O       0.071700
     22 H3         -26.2730     8.3650    17.3130 h1         1 K4O       0.071700
     23 H4         -21.6970     9.2120    18.1620 ha         1 K4O       0.136000
     24 H5         -21.3560    11.6500    17.7440 ha         1 K4O       0.122000
     25 H6         -23.2840    13.0670    17.0420 ha         1 K4O       0.124000
     26 H7         -25.5360    12.0620    16.7520 ha         1 K4O       0.122000
     27 H8         -24.8940     7.7670    15.3400 ha         1 K4O       0.144000
     28 H9         -23.2390     6.6310    12.2100 hc         1 K4O       0.059700
     29 H10        -22.7970     7.1240    13.8530 hc         1 K4O       0.059700
     30 H11        -24.0580     5.9010    13.6020 hc         1 K4O       0.059700
     31 H12        -27.4520    10.4470    15.5960 hn         1 K4O       0.530000
@<TRIPOS>BOND
     1     1    10 1   
     2     1    13 2   
     3     1    15 1   
     4     2    11 1   
     5     2    19 2   
     6     2    20 1   
     7     3     4 1   
     8     3    17 1   
     9     3    21 1   
    10     3    22 1   
    11     4     5 ar  
    12     4     9 ar  
    13     5     6 ar  
    14     5    16 1   
    15     6     7 ar  
    16     6    23 1   
    17     7     8 ar  
    18     7    24 1   
    19     8     9 ar  
    20     8    25 1   
    21     9    26 1   
    22    10    12 2   
    23    10    27 1   
    24    11    14 2   
    25    12    17 1   
    26    12    18 1   
    27    13    14 1   
    28    14    18 1   
    29    15    28 1   
    30    15    29 1   
    31    15    30 1   
    32    17    31 1   
    33    18    19 1   
@<TRIPOS>SUBSTRUCTURE
     1 K4O         1 TEMP              0 ****  ****    0 ROOT
