@<TRIPOS>MOLECULE
K4O
   31    33     1     0     0
SMALL
bcc


@<TRIPOS>ATOM
      1 C1         -24.6620     8.0460    13.1130 cc         1 K4O       0.515600
      2 C3         -27.7520    10.7200    11.8530 cc         1 K4O       0.555200
      3 C5         -26.1880     9.4690    16.9320 c3         1 K4O       0.284100
      4 C6         -24.8230    10.0290    17.2640 ca         1 K4O      -0.162300
      5 C7         -23.9550     9.3450    18.0990 ca         1 K4O       0.140900
      6 C8         -22.7070     9.8240    18.4460 ca         1 K4O      -0.166000
      7 C9         -22.3010    11.0500    17.9390 ca         1 K4O      -0.094000
      8 C10        -23.1440    11.7670    17.1000 ca         1 K4O      -0.139000
      9 C11        -24.3910    11.2570    16.7700 ca         1 K4O      -0.088000
     10 C12        -25.0890     8.4550    14.3860 cc         1 K4O      -0.417300
     11 N1         -26.8990     9.9520    11.1580 nc         1 K4O      -0.398300
     12 C4         -26.1260     9.3650    14.5020 cd         1 K4O       0.323300
     13 N          -25.1900     8.4820    11.9810 nd         1 K4O      -0.685000
     14 C2         -26.1850     9.3570    12.1020 cd         1 K4O       0.454500
     15 C          -23.5420     7.0590    13.0170 c3         1 K4O      -0.153400
     16 F          -24.3400     8.1530    18.5900 f          1 K4O      -0.146900
     17 N4         -26.6600     9.8460    15.6230 nu         1 K4O      -0.766600
     18 N3         -26.6410     9.7940    13.3190 na         1 K4O      -0.018800
     19 N2         -27.6480    10.6690    13.1640 nd         1 K4O      -0.642100
     20 H1         -28.4910    11.3510    11.3810 h5         1 K4O       0.069800
     21 H2         -26.9220     9.8350    17.6500 h1         1 K4O       0.071700
     22 H3         -26.1920     8.3810    17.0210 h1         1 K4O       0.071700
     23 H4         -22.0650     9.2460    19.0990 ha         1 K4O       0.154000
     24 H5         -21.3260    11.4410    18.1990 ha         1 K4O       0.140000
     25 H6         -22.8310    12.7220    16.7010 ha         1 K4O       0.142000
     26 H7         -25.0400    11.8190    16.1100 ha         1 K4O       0.140000
     27 H8         -24.6060     8.0580    15.2660 ha         1 K4O       0.162000
     28 H9         -23.3000     6.8450    11.9790 hc         1 K4O       0.059700
     29 H10        -22.6480     7.4390    13.5140 hc         1 K4O       0.059700
     30 H11        -23.8090     6.1250    13.5130 hc         1 K4O       0.059700
     31 H12        -27.3920    10.5350    15.5440 hn         1 K4O       0.474800
@<TRIPOS>BOND
     1     1    10 1   
     2     1    13 2   
     3     1    15 1   
     4     2    11 1   
     5     2    19 2   
     6     2    20 1   
     7     3     4 1   
     8     3    17 1   
     9     3    21 1   
    10     3    22 1   
    11     4     5 ar  
    12     4     9 ar  
    13     5     6 ar  
    14     5    16 1   
    15     6     7 ar  
    16     6    23 1   
    17     7     8 ar  
    18     7    24 1   
    19     8     9 ar  
    20     8    25 1   
    21     9    26 1   
    22    10    12 2   
    23    10    27 1   
    24    11    14 2   
    25    12    17 1   
    26    12    18 1   
    27    13    14 1   
    28    14    18 1   
    29    15    28 1   
    30    15    29 1   
    31    15    30 1   
    32    17    31 1   
    33    18    19 1   
@<TRIPOS>SUBSTRUCTURE
     1 K4O         1 TEMP              0 ****  ****    0 ROOT
