@<TRIPOS>MOLECULE
K4Q
   36    35     1     0     0
SMALL
No Charge or Current Charge


@<TRIPOS>ATOM
      1 C01        -63.6760     5.5910   -28.2900 c3         1 K4Q      -0.089100
      2 C02        -62.9400     6.7490   -27.5890 c3         1 K4Q      -0.075400
      3 C03        -61.4090     6.6980   -27.7840 c3         1 K4Q      -0.075400
      4 C04        -60.6720     7.8600   -27.0810 c3         1 K4Q      -0.074400
      5 C05        -59.1400     7.8080   -27.2760 c3         1 K4Q      -0.077400
      6 C06        -58.4030     8.9690   -26.5740 c3         1 K4Q      -0.064400
      7 C07        -56.8680     8.9140   -26.7730 c3         1 K4Q      -0.186400
      8 C08        -56.0720    10.0540   -26.0910 c          1 K4Q       0.611100
      9 C11        -54.0300     8.9900   -26.9880 c3         1 K4Q       0.195600
     10 C12        -52.4980     9.2710   -26.9640 c3         1 K4Q       0.050500
     11 C14        -52.1200    10.4770   -27.8880 c          1 K4Q       0.540900
     12 N13        -51.9730     9.3530   -25.5430 n8         1 K4Q      -0.997200
     13 O09        -56.6190    10.9420   -25.4530 o          1 K4Q      -0.436000
     14 O10        -54.7010    10.0350   -26.2440 os         1 K4Q      -0.456100
     15 O15        -52.9230    11.1780   -28.5000 o          1 K4Q      -0.490100
     16 H1         -64.7570     5.6690   -28.1240 hc         1 K4Q       0.031700
     17 H2         -63.4930     5.6120   -29.3710 hc         1 K4Q       0.031700
     18 H3         -63.3380     4.6230   -27.8990 hc         1 K4Q       0.031700
     19 H4         -63.3250     7.7010   -27.9760 hc         1 K4Q       0.037700
     20 H5         -63.1720     6.7220   -26.5170 hc         1 K4Q       0.037700
     21 H6         -61.0290     5.7440   -27.3980 hc         1 K4Q       0.036700
     22 H7         -61.1810     6.7240   -28.8570 hc         1 K4Q       0.036700
     23 H8         -61.0520     8.8140   -27.4670 hc         1 K4Q       0.040700
     24 H9         -60.8990     7.8340   -26.0080 hc         1 K4Q       0.040700
     25 H10        -58.7600     6.8540   -26.8900 hc         1 K4Q       0.035700
     26 H11        -58.9130     7.8340   -28.3490 hc         1 K4Q       0.035700
     27 H12        -58.7830     9.9240   -26.9600 hc         1 K4Q       0.057200
     28 H13        -58.6300     8.9440   -25.5010 hc         1 K4Q       0.057200
     29 H14        -56.4620     7.9540   -26.4320 hc         1 K4Q       0.062200
     30 H15        -56.6110     8.9020   -27.8380 hc         1 K4Q       0.062200
     31 H16        -54.3740     8.9530   -28.0310 h1         1 K4Q       0.051200
     32 H17        -54.2100     8.0090   -26.5300 h1         1 K4Q       0.051200
     33 H18        -52.0090     8.4070   -27.4340 h1         1 K4Q       0.080700
     34 H19        -51.0280    10.6750   -27.9690 h4         1 K4Q      -0.018800
     35 H20        -50.9760     9.6110   -25.5420 hn         1 K4Q       0.413500
     36 H21        -52.4310    10.1390   -25.0610 hn         1 K4Q       0.413500
@<TRIPOS>BOND
     1     1     2 1   
     2     1    16 1   
     3     1    17 1   
     4     1    18 1   
     5     2     3 1   
     6     2    19 1   
     7     2    20 1   
     8     3     4 1   
     9     3    21 1   
    10     3    22 1   
    11     4     5 1   
    12     4    23 1   
    13     4    24 1   
    14     5     6 1   
    15     5    25 1   
    16     5    26 1   
    17     6     7 1   
    18     6    27 1   
    19     6    28 1   
    20     7     8 1   
    21     7    29 1   
    22     7    30 1   
    23     8    13 2   
    24     8    14 1   
    25     9    10 1   
    26     9    14 1   
    27     9    31 1   
    28     9    32 1   
    29    10    11 1   
    30    10    12 1   
    31    10    33 1   
    32    11    15 2   
    33    11    34 1   
    34    12    35 1   
    35    12    36 1   
@<TRIPOS>SUBSTRUCTURE
     1 K4Q         1 TEMP              0 ****  ****    0 ROOT
