@<TRIPOS>MOLECULE
K4Q
   36    35     1     0     0
SMALL
abcg2


@<TRIPOS>ATOM
      1 C01        -63.6010     5.6950   -28.3240 c3         1 K4Q      -0.089100
      2 C02        -62.8700     6.8400   -27.6380 c3         1 K4Q      -0.075400
      3 C03        -61.3550     6.7140   -27.7300 c3         1 K4Q      -0.075400
      4 C04        -60.6140     7.8650   -27.0610 c3         1 K4Q      -0.074400
      5 C05        -59.1000     7.7510   -27.1860 c3         1 K4Q      -0.077400
      6 C06        -58.3640     8.9180   -26.5400 c3         1 K4Q      -0.064400
      7 C07        -56.8610     8.8070   -26.7410 c3         1 K4Q      -0.186400
      8 C08        -56.0850     9.9520   -26.1450 c          1 K4Q       0.611100
      9 C11        -54.0630     8.9320   -26.9970 c3         1 K4Q       0.195600
     10 C12        -52.5990     9.3150   -27.0120 c3         1 K4Q       0.050500
     11 C14        -52.3380    10.5720   -27.8240 c          1 K4Q       0.540900
     12 N13        -52.0480     9.3800   -25.6720 n8         1 K4Q      -0.997200
     13 O09        -56.5870    10.8660   -25.5430 o          1 K4Q      -0.436000
     14 O10        -54.7590     9.9600   -26.2920 os         1 K4Q      -0.456100
     15 O15        -53.0960    11.0500   -28.6260 o          1 K4Q      -0.490100
     16 H1         -64.6830     5.8040   -28.2460 hc         1 K4Q       0.031700
     17 H2         -63.3500     5.6470   -29.3860 hc         1 K4Q       0.031700
     18 H3         -63.3330     4.7340   -27.8810 hc         1 K4Q       0.031700
     19 H4         -63.1810     7.7910   -28.0810 hc         1 K4Q       0.037700
     20 H5         -63.1670     6.8850   -26.5850 hc         1 K4Q       0.037700
     21 H6         -61.0410     5.7670   -27.2780 hc         1 K4Q       0.036700
     22 H7         -61.0600     6.6590   -28.7840 hc         1 K4Q       0.036700
     23 H8         -60.9410     8.8120   -27.5030 hc         1 K4Q       0.040700
     24 H9         -60.8920     7.9110   -26.0030 hc         1 K4Q       0.040700
     25 H10        -58.7660     6.8110   -26.7350 hc         1 K4Q       0.035700
     26 H11        -58.8290     7.6930   -28.2450 hc         1 K4Q       0.035700
     27 H12        -58.7230     9.8570   -26.9690 hc         1 K4Q       0.057200
     28 H13        -58.5980     8.9530   -25.4730 hc         1 K4Q       0.057200
     29 H14        -56.4910     7.8680   -26.3130 hc         1 K4Q       0.062200
     30 H15        -56.6340     8.7440   -27.8100 hc         1 K4Q       0.062200
     31 H16        -54.4370     8.8320   -28.0170 h1         1 K4Q       0.051200
     32 H17        -54.1790     7.9710   -26.4910 h1         1 K4Q       0.051200
     33 H18        -52.0760     8.5100   -27.5450 h1         1 K4Q       0.080700
     34 H19        -51.3510    11.0310   -27.6210 h4         1 K4Q      -0.018800
     35 H20        -51.0380     9.4280   -25.7060 hn         1 K4Q       0.413500
     36 H21        -52.3650    10.2110   -25.1880 hn         1 K4Q       0.413500
@<TRIPOS>BOND
     1     1     2 1   
     2     1    16 1   
     3     1    17 1   
     4     1    18 1   
     5     2     3 1   
     6     2    19 1   
     7     2    20 1   
     8     3     4 1   
     9     3    21 1   
    10     3    22 1   
    11     4     5 1   
    12     4    23 1   
    13     4    24 1   
    14     5     6 1   
    15     5    25 1   
    16     5    26 1   
    17     6     7 1   
    18     6    27 1   
    19     6    28 1   
    20     7     8 1   
    21     7    29 1   
    22     7    30 1   
    23     8    13 2   
    24     8    14 1   
    25     9    10 1   
    26     9    14 1   
    27     9    31 1   
    28     9    32 1   
    29    10    11 1   
    30    10    12 1   
    31    10    33 1   
    32    11    15 2   
    33    11    34 1   
    34    12    35 1   
    35    12    36 1   
@<TRIPOS>SUBSTRUCTURE
     1 K4Q         1 TEMP              0 ****  ****    0 ROOT
