@<TRIPOS>MOLECULE
K4R
   16    17     1     0     0
SMALL
abcg2


@<TRIPOS>ATOM
      1 N1          21.3090   -23.8980    -0.4830 n1         1 K4R      -0.440000
      2 N3          20.8810   -19.3890    -1.2420 na         1 K4R      -0.041400
      3 C4          19.2140   -18.3040     0.2990 ca         1 K4R      -0.123000
      4 C5          18.3580   -18.6270     1.3260 ca         1 K4R      -0.072000
      5 C6          18.2390   -19.9470     1.8120 ca         1 K4R      -0.136000
      6 C7          18.9770   -20.9760     1.2760 ca         1 K4R      -0.036000
      7 C8          19.8540   -20.6710     0.2290 ca         1 K4R      -0.193900
      8 C2          20.7710   -21.3880    -0.5870 cc         1 K4R       0.362800
      9 C3          19.9620   -19.3540    -0.2410 ca         1 K4R      -0.051200
     10 N2          21.3660   -20.5930    -1.4540 nd         1 K4R      -0.469100
     11 H1          21.2060   -18.6180    -1.8060 hn         1 K4R       0.384000
     12 H2          19.3030   -17.2920    -0.0720 ha         1 K4R       0.124000
     13 H3          17.7560   -17.8490     1.7760 ha         1 K4R       0.117000
     14 H4          17.5510   -20.1460     2.6220 ha         1 K4R       0.120000
     15 H5          18.8830   -21.9880     1.6500 ha         1 K4R       0.129000
     16 C1          21.0710   -22.7730    -0.5450 cg         1 K4R       0.325800
@<TRIPOS>BOND
     1     1    16 3   
     2     2     9 1   
     3     2    10 1   
     4     2    11 1   
     5     3     4 ar  
     6     3     9 ar  
     7     3    12 1   
     8     4     5 ar  
     9     4    13 1   
    10     5     6 ar  
    11     5    14 1   
    12     6     7 ar  
    13     6    15 1   
    14     7     8 1   
    15     7     9 ar  
    16     8    10 2   
    17     8    16 1   
@<TRIPOS>SUBSTRUCTURE
     1 K4R         1 TEMP              0 ****  ****    0 ROOT
