@<TRIPOS>MOLECULE
K4R
   16    17     1     0     0
SMALL
No Charge or Current Charge


@<TRIPOS>ATOM
      1 N1          21.2280   -23.9540    -0.3920 n1         1 K4R      -0.440000
      2 N3          20.8960   -19.3460    -1.2710 na         1 K4R      -0.041400
      3 C4          19.2140   -18.3040     0.2970 ca         1 K4R      -0.123000
      4 C5          18.3310   -18.6210     1.3530 ca         1 K4R      -0.072000
      5 C6          18.2280   -19.9540     1.8250 ca         1 K4R      -0.136000
      6 C7          19.0060   -20.9830     1.2480 ca         1 K4R      -0.036000
      7 C8          19.8700   -20.6270     0.2020 ca         1 K4R      -0.193900
      8 C2          20.7930   -21.3950    -0.6040 cc         1 K4R       0.362800
      9 C3          19.9680   -19.3480    -0.2510 ca         1 K4R      -0.051200
     10 N2          21.4260   -20.6230    -1.5090 nd         1 K4R      -0.469100
     11 H1          21.1930   -18.5360    -1.8150 hn         1 K4R       0.384000
     12 H2          19.3020   -17.2850    -0.0750 ha         1 K4R       0.124000
     13 H3          17.7260   -17.8380     1.8060 ha         1 K4R       0.117000
     14 H4          17.5450   -20.1870     2.6390 ha         1 K4R       0.120000
     15 H5          18.9340   -22.0090     1.6040 ha         1 K4R       0.129000
     16 C1          21.0420   -22.8020    -0.4990 cg         1 K4R       0.325800
@<TRIPOS>BOND
     1     1    16 3   
     2     2     9 1   
     3     2    10 1   
     4     2    11 1   
     5     3     4 ar  
     6     3     9 ar  
     7     3    12 1   
     8     4     5 ar  
     9     4    13 1   
    10     5     6 ar  
    11     5    14 1   
    12     6     7 ar  
    13     6    15 1   
    14     7     8 1   
    15     7     9 ar  
    16     8    10 2   
    17     8    16 1   
@<TRIPOS>SUBSTRUCTURE
     1 K4R         1 TEMP              0 ****  ****    0 ROOT
