@<TRIPOS>MOLECULE
K4T
   33    35     1     0     0
SMALL
abcg2


@<TRIPOS>ATOM
      1 C5          -2.3880    -0.4850     0.0370 c          1 K4T       0.639700
      2 C6           1.2720    -0.3060     0.0040 cc         1 K4T       0.301500
      3 C8          -4.2660     0.9230    -0.5570 cx         1 K4T       0.042700
      4 C10         -4.6700     2.3540    -0.4150 cx         1 K4T      -0.131400
      5 C13         -0.7930    -3.1210     0.1950 c3         1 K4T       0.072900
      6 C15          2.8490     1.6140    -0.0410 ca         1 K4T      -0.091500
      7 C17          4.1360     2.1300    -0.0600 ca         1 K4T      -0.115000
      8 C1          -0.9140    -0.6000     0.0050 cd         1 K4T      -0.224600
      9 N2          -0.2560    -1.7780     0.1000 na         1 K4T       0.180800
     10 C3           0.0510     0.3830    -0.0610 cc         1 K4T      -0.188000
     11 N4           1.0530    -1.6120     0.0960 nd         1 K4T      -0.510800
     12 N7          -2.8710     0.6290    -0.5370 ns         1 K4T      -0.472900
     13 C9          -4.9220     1.3910     0.7040 cx         1 K4T      -0.131400
     14 O11         -3.0930    -1.3310     0.5660 o          1 K4T      -0.595100
     15 C12          2.6330     0.2360    -0.0160 ca         1 K4T      -0.113500
     16 C14          3.7410    -0.6130    -0.0110 ca         1 K4T      -0.091500
     17 C16          5.0270    -0.0970    -0.0290 ca         1 K4T      -0.115000
     18 C18          5.2320     1.2780    -0.0540 ca         1 K4T      -0.105000
     19 H1          -4.8590     0.3040    -1.2220 h1         1 K4T       0.088700
     20 H2          -3.8840     3.0870    -0.2830 hc         1 K4T       0.079200
     21 H3          -5.5080     2.6990    -1.0060 hc         1 K4T       0.079200
     22 H4          -1.5700    -3.2790    -0.5470 h1         1 K4T       0.066367
     23 H5           0.0240    -3.8090     0.0060 h1         1 K4T       0.066367
     24 H6          -1.2000    -3.3100     1.1860 h1         1 K4T       0.066367
     25 H7           2.0100     2.2980    -0.0410 ha         1 K4T       0.118500
     26 H8           4.2810     3.2030    -0.0770 ha         1 K4T       0.112000
     27 H9          -0.1100     1.4470    -0.1280 ha         1 K4T       0.143000
     28 H10         -2.2550     1.2040    -1.0910 hn         1 K4T       0.326500
     29 H11         -5.9360     1.0650     0.8910 hc         1 K4T       0.079200
     30 H12         -4.3030     1.4740     1.5880 hc         1 K4T       0.079200
     31 H13          3.5970    -1.6860     0.0070 ha         1 K4T       0.118500
     32 H14          5.8730    -0.7720    -0.0240 ha         1 K4T       0.112000
     33 H15          6.2370     1.6800    -0.0690 ha         1 K4T       0.112000
@<TRIPOS>BOND
     1     1     8 1   
     2     1    12 1   
     3     1    14 2   
     4     2    10 1   
     5     2    11 2   
     6     2    15 1   
     7     3     4 1   
     8     3    12 1   
     9     3    13 1   
    10     3    19 1   
    11     4    13 1   
    12     4    20 1   
    13     4    21 1   
    14     5     9 1   
    15     5    22 1   
    16     5    23 1   
    17     5    24 1   
    18     6     7 ar  
    19     6    15 ar  
    20     6    25 1   
    21     7    18 ar  
    22     7    26 1   
    23     8     9 1   
    24     8    10 2   
    25     9    11 1   
    26    10    27 1   
    27    12    28 1   
    28    13    29 1   
    29    13    30 1   
    30    15    16 ar  
    31    16    17 ar  
    32    16    31 1   
    33    17    18 ar  
    34    17    32 1   
    35    18    33 1   
@<TRIPOS>SUBSTRUCTURE
     1 K4T         1 TEMP              0 ****  ****    0 ROOT
