@<TRIPOS>MOLECULE
K4T
   33    35     1     0     0
SMALL
No Charge or Current Charge


@<TRIPOS>ATOM
      1 C5          -2.4280    -0.6680    -0.1770 c          1 K4T       0.639700
      2 C6           1.2600    -0.4990    -0.0250 cc         1 K4T       0.301500
      3 C8          -4.1890     1.0700    -0.4640 cx         1 K4T       0.042700
      4 C10         -4.4680     2.5490    -0.3600 cx         1 K4T      -0.131400
      5 C13         -0.7680    -3.3830     0.2250 c3         1 K4T       0.072900
      6 C15          2.6690     1.5860    -0.2080 ca         1 K4T      -0.091500
      7 C17          3.9230     2.2220    -0.2250 ca         1 K4T      -0.115000
      8 C1          -0.9540    -0.8410    -0.0880 cd         1 K4T      -0.224600
      9 N2          -0.2270    -2.0230     0.0880 na         1 K4T       0.180800
     10 C3           0.0070     0.1310    -0.1590 cc         1 K4T      -0.188000
     11 N4           1.1440    -1.8060     0.1260 nd         1 K4T      -0.510800
     12 N7          -2.8220     0.6390    -0.3530 ns         1 K4T      -0.472900
     13 C9          -4.8500     1.6270     0.7730 cx         1 K4T      -0.131400
     14 O11         -3.2290    -1.5900    -0.1030 o          1 K4T      -0.595100
     15 C12          2.5690     0.1830    -0.0450 ca         1 K4T      -0.113500
     16 C14          3.7670    -0.5590     0.1000 ca         1 K4T      -0.091500
     17 C16          5.0190     0.0800     0.0820 ca         1 K4T      -0.115000
     18 C18          5.0990     1.4700    -0.0800 ca         1 K4T      -0.105000
     19 H1          -4.7960     0.4790    -1.1530 h1         1 K4T       0.088700
     20 H2          -3.6280     3.2220    -0.2040 hc         1 K4T       0.079200
     21 H3          -5.2670     2.9550    -0.9750 hc         1 K4T       0.079200
     22 H4          -1.3410    -3.6410    -0.6730 h1         1 K4T       0.066367
     23 H5           0.0500    -4.1030     0.3500 h1         1 K4T       0.066367
     24 H6          -1.4240    -3.4280     1.1020 h1         1 K4T       0.066367
     25 H7           1.7820     2.2020    -0.3230 ha         1 K4T       0.118500
     26 H8           3.9820     3.3010    -0.3510 ha         1 K4T       0.112000
     27 H9          -0.1460     1.1950    -0.2930 ha         1 K4T       0.143000
     28 H10         -2.0800     1.3220    -0.4070 hn         1 K4T       0.326500
     29 H11         -5.9060     1.4120     0.9190 hc         1 K4T       0.079200
     30 H12         -4.2640     1.6750     1.6880 hc         1 K4T       0.079200
     31 H13          3.7360    -1.6380     0.2270 ha         1 K4T       0.118500
     32 H14          5.9280    -0.5070     0.1950 ha         1 K4T       0.112000
     33 H15          6.0680     1.9640    -0.0940 ha         1 K4T       0.112000
@<TRIPOS>BOND
     1     1     8 1   
     2     1    12 1   
     3     1    14 2   
     4     2    10 1   
     5     2    11 2   
     6     2    15 1   
     7     3     4 1   
     8     3    12 1   
     9     3    13 1   
    10     3    19 1   
    11     4    13 1   
    12     4    20 1   
    13     4    21 1   
    14     5     9 1   
    15     5    22 1   
    16     5    23 1   
    17     5    24 1   
    18     6     7 ar  
    19     6    15 ar  
    20     6    25 1   
    21     7    18 ar  
    22     7    26 1   
    23     8     9 1   
    24     8    10 2   
    25     9    11 1   
    26    10    27 1   
    27    12    28 1   
    28    13    29 1   
    29    13    30 1   
    30    15    16 ar  
    31    16    17 ar  
    32    16    31 1   
    33    17    18 ar  
    34    17    32 1   
    35    18    33 1   
@<TRIPOS>SUBSTRUCTURE
     1 K4T         1 TEMP              0 ****  ****    0 ROOT
