@<TRIPOS>MOLECULE
K4U
   57    61     1     0     0
SMALL
abcg2


@<TRIPOS>ATOM
      1 C1         -57.7620    76.7000   -10.4410 c5         1 K4U       0.003600
      2 S2         -56.7440    75.6410   -11.5120 ss         1 K4U      -0.285200
      3 C3         -55.6800    77.0270   -11.7790 c2         1 K4U       0.520800
      4 N4         -55.8410    78.0620   -11.0740 n2         1 K4U      -0.645900
      5 C5         -56.8770    77.9020   -10.0730 c5         1 K4U       0.142500
      6 C6         -57.7080    79.1660    -9.8600 c3         1 K4U       0.191800
      7 N7         -58.5170    79.5330   -11.0030 n3         1 K4U      -0.738600
      8 C8         -57.8280    80.4150   -11.9310 c6         1 K4U       0.173300
      9 C9         -58.6370    80.6150   -13.2030 c6         1 K4U      -0.075900
     10 C10        -60.0280    81.1460   -12.8830 c6         1 K4U      -0.074400
     11 C11        -60.7020    80.2550   -11.8490 c6         1 K4U      -0.075900
     12 C12        -59.8130    80.0730   -10.6280 c6         1 K4U       0.173300
     13 N13        -54.6890    76.9790   -12.7360 ns         1 K4U      -0.387400
     14 N14        -51.7260    75.4870   -16.1320 nb         1 K4U      -0.722000
     15 C15        -51.2630    76.7180   -16.1300 ca         1 K4U       0.381900
     16 C16        -51.7620    77.7100   -15.2830 ca         1 K4U       0.289300
     17 N17        -52.7430    77.3890   -14.4590 nb         1 K4U      -0.624000
     18 C18        -53.2320    76.1620   -14.4390 ca         1 K4U       0.176500
     19 C19        -52.7100    75.1650   -15.2980 ca         1 K4U       0.624900
     20 N20        -53.1900    73.8940   -15.2860 nu         1 K4U      -0.912900
     21 C21        -52.7970    72.7870   -16.0120 ca         1 K4U       0.204000
     22 C22        -53.4660    71.5840   -15.7560 ca         1 K4U       0.071400
     23 N23        -53.1850    70.4590   -16.3810 nb         1 K4U      -0.153000
     24 C24        -52.2190    70.5040   -17.2890 ca         1 K4U       0.087900
     25 N25        -51.5230    71.5770   -17.6130 nb         1 K4U      -0.153000
     26 C26        -51.7990    72.7160   -16.9880 ca         1 K4U       0.071400
     27 C27        -51.2210    79.0810   -15.2880 cx         1 K4U      -0.191000
     28 C28        -52.1240    80.2500   -15.0000 cx         1 K4U      -0.107400
     29 C29        -51.1030    79.8450   -13.9960 cx         1 K4U      -0.107400
     30 C30        -54.3380    75.9050   -13.4810 c          1 K4U       0.538600
     31 O31        -54.8790    74.8140   -13.3730 o          1 K4U      -0.594100
     32 H32        -58.6400    77.0230   -11.0000 h1         1 K4U       0.088200
     33 H1         -58.0790    76.1380    -9.5650 h1         1 K4U       0.088200
     34 H2         -56.3710    77.7000    -9.1200 h1         1 K4U       0.068700
     35 H34        -58.3660    78.9660    -9.0120 h1         1 K4U       0.039700
     36 H33        -57.0420    79.9820    -9.5410 h1         1 K4U       0.039700
     37 H35        -57.6310    81.3980   -11.4660 h1         1 K4U       0.031950
     38 H36        -56.8560    79.9840   -12.1720 h1         1 K4U       0.031950
     39 H37        -58.1040    81.2990   -13.8670 hc         1 K4U       0.045700
     40 H38        -58.7180    79.6590   -13.7290 hc         1 K4U       0.045700
     41 H39        -59.9430    82.1630   -12.4850 hc         1 K4U       0.038200
     42 H40        -60.6350    81.2130   -13.7890 hc         1 K4U       0.038200
     43 H41        -61.6610    80.6760   -11.5390 hc         1 K4U       0.045700
     44 H42        -60.9100    79.2730   -12.2860 hc         1 K4U       0.045700
     45 H44        -60.2880    79.3840    -9.9260 h1         1 K4U       0.031950
     46 H43        -59.7160    81.0420   -10.1050 h1         1 K4U       0.031950
     47 H45        -54.1530    77.8290   -12.8730 hn         1 K4U       0.363500
     48 H47        -53.9440    73.7480   -14.6210 hn         1 K4U       0.546000
     49 H48        -54.2560    71.5510   -15.0110 h4         1 K4U       0.042100
     50 H49        -51.9830    69.5810   -17.8060 h5         1 K4U       0.053100
     51 H50        -51.2200    73.5820   -17.2670 h4         1 K4U       0.042100
     52 H51        -50.4360    79.2420   -16.0180 hc         1 K4U       0.087700
     53 H52        -51.9600    81.1540   -15.5710 hc         1 K4U       0.078700
     54 H53        -53.1630    80.0310   -14.7860 hc         1 K4U       0.078700
     55 H55        -51.4430    79.3480   -13.0960 hc         1 K4U       0.078700
     56 H54        -50.2270    80.4660   -13.8670 hc         1 K4U       0.078700
     57 H46        -50.4610    76.9400   -16.8260 h4         1 K4U       0.035100
@<TRIPOS>BOND
     1     1     2 1   
     2     1     5 1   
     3     1    32 1   
     4     1    33 1   
     5     2     3 1   
     6     3     4 2   
     7     3    13 1   
     8     4     5 1   
     9     5     6 1   
    10     5    34 1   
    11     6     7 1   
    12     6    35 1   
    13     6    36 1   
    14     7     8 1   
    15     7    12 1   
    16     8     9 1   
    17     8    37 1   
    18     8    38 1   
    19     9    10 1   
    20     9    39 1   
    21     9    40 1   
    22    10    11 1   
    23    10    41 1   
    24    10    42 1   
    25    11    12 1   
    26    11    43 1   
    27    11    44 1   
    28    12    45 1   
    29    12    46 1   
    30    13    30 1   
    31    13    47 1   
    32    14    15 ar  
    33    14    19 ar  
    34    15    16 ar  
    35    15    57 1   
    36    16    17 ar  
    37    16    27 1   
    38    17    18 ar  
    39    18    19 ar  
    40    18    30 1   
    41    19    20 1   
    42    20    21 1   
    43    20    48 1   
    44    21    22 ar  
    45    21    26 ar  
    46    22    23 ar  
    47    22    49 1   
    48    23    24 ar  
    49    24    25 ar  
    50    24    50 1   
    51    25    26 ar  
    52    26    51 1   
    53    27    28 1   
    54    27    29 1   
    55    27    52 1   
    56    28    29 1   
    57    28    53 1   
    58    28    54 1   
    59    29    55 1   
    60    29    56 1   
    61    30    31 2   
@<TRIPOS>SUBSTRUCTURE
     1 K4U         1 TEMP              0 ****  ****    0 ROOT
