@<TRIPOS>MOLECULE
K4U
   57    61     1     0     0
SMALL
No Charge or Current Charge


@<TRIPOS>ATOM
      1 C1         -57.2060    77.0540   -10.0850 c5         1 K4U       0.003600
      2 S2         -55.7940    76.0340   -10.6580 ss         1 K4U      -0.285200
      3 C3         -55.3000    77.4450   -11.6180 c2         1 K4U       0.520800
      4 N4         -55.7130    78.6190   -11.3080 n2         1 K4U      -0.645900
      5 C5         -56.6290    78.5020   -10.1160 c5         1 K4U       0.142500
      6 C6         -57.7200    79.6240   -10.0790 c3         1 K4U       0.191800
      7 N7         -58.9290    79.4530   -10.9440 n3         1 K4U      -0.738600
      8 C8         -58.6270    79.4250   -12.4070 c6         1 K4U       0.173300
      9 C9         -59.8970    79.1630   -13.2540 c6         1 K4U      -0.075900
     10 C10        -61.0020    80.1970   -12.9430 c6         1 K4U      -0.074400
     11 C11        -61.2760    80.2330   -11.4240 c6         1 K4U      -0.075900
     12 C12        -59.9680    80.4750   -10.6310 c6         1 K4U       0.173300
     13 N13        -54.3010    77.2730   -12.5540 ns         1 K4U      -0.387400
     14 N14        -51.5330    75.5220   -16.1610 nb         1 K4U      -0.722000
     15 C15        -50.7950    76.6590   -16.0300 ca         1 K4U       0.381900
     16 C16        -51.0960    77.6740   -15.0750 ca         1 K4U       0.289300
     17 N17        -52.1600    77.5630   -14.2340 nb         1 K4U      -0.624000
     18 C18        -52.9130    76.4170   -14.3610 ca         1 K4U       0.176500
     19 C19        -52.5790    75.3990   -15.3210 ca         1 K4U       0.624900
     20 N20        -53.3080    74.2230   -15.5020 nu         1 K4U      -0.912900
     21 C21        -53.1580    73.0470   -16.2720 ca         1 K4U       0.204000
     22 C22        -54.2870    72.2430   -16.5500 ca         1 K4U       0.071400
     23 N23        -54.2030    71.1020   -17.2670 nb         1 K4U      -0.153000
     24 C24        -52.9740    70.7560   -17.7040 ca         1 K4U       0.087900
     25 N25        -51.8260    71.4310   -17.4890 nb         1 K4U      -0.153000
     26 C26        -51.9200    72.5720   -16.7720 ca         1 K4U       0.071400
     27 C27        -50.2500    78.9230   -14.9600 cx         1 K4U      -0.191000
     28 C28        -50.8400    80.2840   -14.6470 cx         1 K4U      -0.107400
     29 C29        -49.9600    79.5930   -13.6310 cx         1 K4U      -0.107400
     30 C30        -54.1290    76.2560   -13.4620 c          1 K4U       0.538600
     31 O31        -54.9150    75.3170   -13.5520 o          1 K4U      -0.594100
     32 H32        -58.0380    76.9400   -10.7920 h1         1 K4U       0.088200
     33 H1         -57.5480    76.7500    -9.0880 h1         1 K4U       0.088200
     34 H2         -56.0120    78.6580    -9.2200 h1         1 K4U       0.068700
     35 H34        -58.0540    79.6840    -9.0340 h1         1 K4U       0.039700
     36 H33        -57.2320    80.5840   -10.3000 h1         1 K4U       0.039700
     37 H35        -58.1740    80.3770   -12.7210 h1         1 K4U       0.031950
     38 H36        -57.9090    78.6290   -12.6430 h1         1 K4U       0.031950
     39 H37        -59.6450    79.1920   -14.3220 hc         1 K4U       0.045700
     40 H38        -60.2700    78.1500   -13.0480 hc         1 K4U       0.045700
     41 H39        -60.6870    81.1920   -13.2880 hc         1 K4U       0.038200
     42 H40        -61.9210    79.9470   -13.4890 hc         1 K4U       0.038200
     43 H41        -62.0030    81.0220   -11.1910 hc         1 K4U       0.045700
     44 H42        -61.7280    79.2840   -11.1040 hc         1 K4U       0.045700
     45 H44        -60.2050    80.4610    -9.5570 h1         1 K4U       0.031950
     46 H43        -59.5910    81.4830   -10.8640 h1         1 K4U       0.031950
     47 H45        -53.6470    78.0370   -12.6510 hn         1 K4U       0.363500
     48 H47        -54.1730    74.2550   -14.9460 hn         1 K4U       0.546000
     49 H48        -55.2790    72.5200   -16.1970 h4         1 K4U       0.042100
     50 H49        -52.9010    69.8370   -18.2830 h5         1 K4U       0.053100
     51 H50        -50.9810    73.0880   -16.5850 h4         1 K4U       0.042100
     52 H51        -49.4290    78.9170   -15.6740 hc         1 K4U       0.087700
     53 H52        -50.4310    81.1460   -15.1680 hc         1 K4U       0.078700
     54 H53        -51.9040    80.3500   -14.4310 hc         1 K4U       0.078700
     55 H55        -50.4370    79.1980   -12.7370 hc         1 K4U       0.078700
     56 H54        -48.9610    79.9920   -13.4710 hc         1 K4U       0.078700
     57 H46        -49.9440    76.7630   -16.7020 h4         1 K4U       0.035100
@<TRIPOS>BOND
     1     1     2 1   
     2     1     5 1   
     3     1    32 1   
     4     1    33 1   
     5     2     3 1   
     6     3     4 2   
     7     3    13 1   
     8     4     5 1   
     9     5     6 1   
    10     5    34 1   
    11     6     7 1   
    12     6    35 1   
    13     6    36 1   
    14     7     8 1   
    15     7    12 1   
    16     8     9 1   
    17     8    37 1   
    18     8    38 1   
    19     9    10 1   
    20     9    39 1   
    21     9    40 1   
    22    10    11 1   
    23    10    41 1   
    24    10    42 1   
    25    11    12 1   
    26    11    43 1   
    27    11    44 1   
    28    12    45 1   
    29    12    46 1   
    30    13    30 1   
    31    13    47 1   
    32    14    15 ar  
    33    14    19 ar  
    34    15    16 ar  
    35    15    57 1   
    36    16    17 ar  
    37    16    27 1   
    38    17    18 ar  
    39    18    19 ar  
    40    18    30 1   
    41    19    20 1   
    42    20    21 1   
    43    20    48 1   
    44    21    22 ar  
    45    21    26 ar  
    46    22    23 ar  
    47    22    49 1   
    48    23    24 ar  
    49    24    25 ar  
    50    24    50 1   
    51    25    26 ar  
    52    26    51 1   
    53    27    28 1   
    54    27    29 1   
    55    27    52 1   
    56    28    29 1   
    57    28    53 1   
    58    28    54 1   
    59    29    55 1   
    60    29    56 1   
    61    30    31 2   
@<TRIPOS>SUBSTRUCTURE
     1 K4U         1 TEMP              0 ****  ****    0 ROOT
