@<TRIPOS>MOLECULE
K4V
   20    20     1     0     0
SMALL
No Charge or Current Charge


@<TRIPOS>ATOM
      1 C1          -1.7770     0.0870     0.0950 ca         1 K4V      -0.181200
      2 C2          -0.9880    -1.0760     0.2630 ca         1 K4V      -0.033500
      3 C3           0.4120    -0.9770     0.3480 ca         1 K4V      -0.125000
      4 C4           1.0390     0.2790     0.2540 ca         1 K4V       0.151100
      5 C5           0.2630     1.4370     0.1040 ca         1 K4V      -0.125000
      6 C6          -1.1380     1.3470     0.0190 ca         1 K4V      -0.033500
      7 C15          3.3050    -0.3690    -0.3270 c          1 K4V       0.600100
      8 C16          4.7360    -0.0590     0.0860 c3         1 K4V      -0.155100
      9 N10         -3.2700    -0.0150     0.0040 no         1 K4V       0.695200
     10 O11         -3.7860    -1.1380     0.0780 o          1 K4V      -0.396500
     11 O13         -3.9200     1.0290    -0.1410 o          1 K4V      -0.396500
     12 O14          2.4040     0.4050     0.3570 os         1 K4V      -0.370200
     13 O17          3.0100    -1.1960    -1.1780 o          1 K4V      -0.448000
     14 H1          -1.4500    -2.0600     0.3340 ha         1 K4V       0.155000
     15 H2           1.0050    -1.8770     0.4920 ha         1 K4V       0.139000
     16 H3           0.7490     2.4080     0.0500 ha         1 K4V       0.139000
     17 H4          -1.7170     2.2620    -0.1040 ha         1 K4V       0.155000
     18 H5           4.8260    -0.1870     1.1710 hc         1 K4V       0.076367
     19 H6           5.4720    -0.6600    -0.4590 hc         1 K4V       0.076367
     20 H7           4.9140     1.0150    -0.0360 hc         1 K4V       0.076367
@<TRIPOS>BOND
     1     1     2 ar  
     2     1     6 ar  
     3     1     9 1   
     4     2     3 ar  
     5     2    14 1   
     6     3     4 ar  
     7     3    15 1   
     8     4     5 ar  
     9     4    12 1   
    10     5     6 ar  
    11     5    16 1   
    12     6    17 1   
    13     7     8 1   
    14     7    12 1   
    15     7    13 2   
    16     8    18 1   
    17     8    19 1   
    18     8    20 1   
    19     9    10 1   
    20     9    11 1   
@<TRIPOS>SUBSTRUCTURE
     1 K4V         1 TEMP              0 ****  ****    0 ROOT
