@<TRIPOS>MOLECULE
K4V
   20    20     1     0     0
SMALL
abcg2


@<TRIPOS>ATOM
      1 C1          -1.6930     0.0590     0.0840 ca         1 K4V      -0.181200
      2 C2          -1.0220    -1.0980     0.4520 ca         1 K4V      -0.033500
      3 C3           0.3500    -1.0530     0.6210 ca         1 K4V      -0.125000
      4 C4           1.0230     0.1430     0.4240 ca         1 K4V       0.151100
      5 C5           0.3480     1.2960     0.0550 ca         1 K4V      -0.125000
      6 C6          -1.0240     1.2580    -0.1140 ca         1 K4V      -0.033500
      7 C15          3.2010    -0.1300    -0.3790 c          1 K4V       0.600100
      8 C16          4.6310    -0.0130     0.0330 c3         1 K4V      -0.155100
      9 N10         -3.1350     0.0130    -0.0970 no         1 K4V       0.695200
     10 O11         -3.6930    -1.0480     0.0540 o          1 K4V      -0.396500
     11 O13         -3.7040     1.0390    -0.3890 o          1 K4V      -0.396500
     12 O14          2.3760     0.2050     0.6430 os         1 K4V      -0.370200
     13 O17          2.7840    -0.4700    -1.4490 o          1 K4V      -0.448000
     14 H1          -1.5480    -2.0280     0.6100 ha         1 K4V       0.155000
     15 H2           0.8880    -1.9430     0.9170 ha         1 K4V       0.139000
     16 H3           0.8870     2.2220    -0.0930 ha         1 K4V       0.139000
     17 H4          -1.5510     2.1560    -0.4000 ha         1 K4V       0.155000
     18 H5           4.8450    -0.7070     0.8460 hc         1 K4V       0.076367
     19 H6           5.2840    -0.2370    -0.8060 hc         1 K4V       0.076367
     20 H7           4.8430     0.9920     0.3970 hc         1 K4V       0.076367
@<TRIPOS>BOND
     1     1     2 ar  
     2     1     6 ar  
     3     1     9 1   
     4     2     3 ar  
     5     2    14 1   
     6     3     4 ar  
     7     3    15 1   
     8     4     5 ar  
     9     4    12 1   
    10     5     6 ar  
    11     5    16 1   
    12     6    17 1   
    13     7     8 1   
    14     7    12 1   
    15     7    13 2   
    16     8    18 1   
    17     8    19 1   
    18     8    20 1   
    19     9    10 1   
    20     9    11 1   
@<TRIPOS>SUBSTRUCTURE
     1 K4V         1 TEMP              0 ****  ****    0 ROOT
