@<TRIPOS>MOLECULE
K4Y
   31    32     1     0     0
SMALL
No Charge or Current Charge


@<TRIPOS>ATOM
      1 C01         -5.3030     1.8020     0.7990 c3         1 K4Y       0.159900
      2 C03         -3.2890     0.4870     0.3080 ca         1 K4Y       0.375300
      3 C05         -2.0600     0.7750    -1.6080 ca         1 K4Y       0.200900
      4 C07         -1.3270    -0.8130    -0.1330 ca         1 K4Y       0.408900
      5 C12          1.9570    -0.4690    -0.0930 ca         1 K4Y      -0.368500
      6 C13          2.1280     0.3940    -1.1930 ca         1 K4Y       0.051000
      7 C14          2.7660     1.6320    -1.0130 ca         1 K4Y      -0.223000
      8 C15          3.2290     2.0080     0.2520 ca         1 K4Y       0.380000
      9 C17          3.0600     1.1530     1.3450 ca         1 K4Y      -0.223000
     10 C18          2.4240    -0.0890     1.1800 ca         1 K4Y       0.051000
     11 C19         -2.3980    -0.5130     0.7110 ca         1 K4Y      -0.297000
     12 N04         -3.1200     1.1400    -0.8610 nb         1 K4Y      -0.289000
     13 N06         -1.1540    -0.1740    -1.3020 nb         1 K4Y      -0.264000
     14 N08         -0.4310    -1.7950     0.2260 nu         1 K4Y      -0.880000
     15 N16          3.8470     3.2120     0.4200 nv         1 K4Y      -1.095000
     16 O02         -4.3420     0.7830     1.1440 os         1 K4Y      -0.453300
     17 O10          1.0000    -2.3770    -1.7270 o          1 K4Y      -0.531500
     18 O11          1.6460    -3.0030     0.6780 o          1 K4Y      -0.531500
     19 S09          1.1340    -2.0470    -0.3050 sy         1 K4Y       1.204600
     20 H1          -4.8150     2.7790     0.6860 h1         1 K4Y       0.050700
     21 H2          -5.8140     1.5570    -0.1410 h1         1 K4Y       0.050700
     22 H3          -6.0640     1.8920     1.5850 h1         1 K4Y       0.050700
     23 H4          -1.9220     1.2980    -2.5530 h5         1 K4Y       0.051100
     24 H5           1.7690     0.1150    -2.1830 ha         1 K4Y       0.134500
     25 H6           2.8970     2.2960    -1.8630 ha         1 K4Y       0.116500
     26 H7           3.4200     1.4440     2.3280 ha         1 K4Y       0.116500
     27 H8           2.2960    -0.7450     2.0410 ha         1 K4Y       0.134500
     28 H9          -2.5430    -1.0340     1.6510 ha         1 K4Y       0.148000
     29 H10         -0.4680    -2.1360     1.1740 hn         1 K4Y       0.519000
     30 H11          3.7930     3.9030    -0.3260 hn         1 K4Y       0.475500
     31 H12          4.0050     3.5630     1.3620 hn         1 K4Y       0.475500
@<TRIPOS>BOND
     1     1    16 1   
     2     1    20 1   
     3     1    21 1   
     4     1    22 1   
     5     2    11 ar  
     6     2    12 ar  
     7     2    16 1   
     8     3    12 ar  
     9     3    13 ar  
    10     3    23 1   
    11     4    11 ar  
    12     4    13 ar  
    13     4    14 1   
    14     5     6 ar  
    15     5    10 ar  
    16     5    19 1   
    17     6     7 ar  
    18     6    24 1   
    19     7     8 ar  
    20     7    25 1   
    21     8     9 ar  
    22     8    15 1   
    23     9    10 ar  
    24     9    26 1   
    25    10    27 1   
    26    11    28 1   
    27    14    19 1   
    28    14    29 1   
    29    15    30 1   
    30    15    31 1   
    31    17    19 2   
    32    18    19 2   
@<TRIPOS>SUBSTRUCTURE
     1 K4Y         1 TEMP              0 ****  ****    0 ROOT
