@<TRIPOS>MOLECULE
K4Y
   31    32     1     0     0
SMALL
abcg2


@<TRIPOS>ATOM
      1 C01         -5.3820     1.6610     0.6030 c3         1 K4Y       0.159900
      2 C03         -3.3670     0.4510     0.3630 ca         1 K4Y       0.375300
      3 C05         -2.0020     0.8920    -1.3680 ca         1 K4Y       0.200900
      4 C07         -1.3530    -0.7200     0.0580 ca         1 K4Y       0.408900
      5 C12          1.9310    -0.4140    -0.1250 ca         1 K4Y      -0.368500
      6 C13          2.0910     0.4440    -1.2090 ca         1 K4Y       0.051000
      7 C14          2.7830     1.6240    -1.0540 ca         1 K4Y      -0.223000
      8 C15          3.3250     1.9840     0.1930 ca         1 K4Y       0.380000
      9 C17          3.1460     1.1050     1.2780 ca         1 K4Y      -0.223000
     10 C18          2.4620    -0.0790     1.1190 ca         1 K4Y       0.051000
     11 C19         -2.4930    -0.5290     0.8220 ca         1 K4Y      -0.297000
     12 N04         -3.1280     1.1640    -0.7290 nb         1 K4Y      -0.289000
     13 N06         -1.0990    -0.0100    -1.0410 nb         1 K4Y      -0.264000
     14 N08         -0.4320    -1.6690     0.4240 nu         1 K4Y      -0.880000
     15 N16          4.0330     3.1300     0.3390 nv         1 K4Y      -1.095000
     16 O02         -4.4710     0.6650     1.0590 os         1 K4Y      -0.453300
     17 O10          0.8650    -2.2030    -1.7070 o          1 K4Y      -0.531500
     18 O11          1.6580    -2.9270     0.5580 o          1 K4Y      -0.531500
     19 S09          1.0590    -1.9160    -0.3000 sy         1 K4Y       1.204600
     20 H1          -4.9170     2.6460     0.5660 h1         1 K4Y       0.050700
     21 H2          -5.7820     1.4200    -0.3820 h1         1 K4Y       0.050700
     22 H3          -6.1910     1.6710     1.3280 h1         1 K4Y       0.050700
     23 H4          -1.7990     1.4760    -2.2590 h5         1 K4Y       0.051100
     24 H5           1.6750     0.1940    -2.1740 ha         1 K4Y       0.134500
     25 H6           2.9070     2.2850    -1.9020 ha         1 K4Y       0.116500
     26 H7           3.5540     1.3620     2.2480 ha         1 K4Y       0.116500
     27 H8           2.3440    -0.7350     1.9710 ha         1 K4Y       0.134500
     28 H9          -2.6950    -1.1000     1.7180 ha         1 K4Y       0.148000
     29 H10         -0.5620    -2.1560     1.3010 hn         1 K4Y       0.519000
     30 H11          3.9620     3.8370    -0.3720 hn         1 K4Y       0.475500
     31 H12          4.2010     3.4820     1.2670 hn         1 K4Y       0.475500
@<TRIPOS>BOND
     1     1    16 1   
     2     1    20 1   
     3     1    21 1   
     4     1    22 1   
     5     2    11 ar  
     6     2    12 ar  
     7     2    16 1   
     8     3    12 ar  
     9     3    13 ar  
    10     3    23 1   
    11     4    11 ar  
    12     4    13 ar  
    13     4    14 1   
    14     5     6 ar  
    15     5    10 ar  
    16     5    19 1   
    17     6     7 ar  
    18     6    24 1   
    19     7     8 ar  
    20     7    25 1   
    21     8     9 ar  
    22     8    15 1   
    23     9    10 ar  
    24     9    26 1   
    25    10    27 1   
    26    11    28 1   
    27    14    19 1   
    28    14    29 1   
    29    15    30 1   
    30    15    31 1   
    31    17    19 2   
    32    18    19 2   
@<TRIPOS>SUBSTRUCTURE
     1 K4Y         1 TEMP              0 ****  ****    0 ROOT
