@<TRIPOS>MOLECULE
K51
   43    45     1     0     0
SMALL
abcg2


@<TRIPOS>ATOM
      1 N4          -5.8310    -3.0390     0.5070 n1         1 K51      -0.457000
      2 C13         -5.0460    -2.1960     0.4510 cg         1 K51       0.327000
      3 C10         -4.0750    -1.1560     0.3840 ca         1 K51      -0.024000
      4 C11         -4.4580     0.1400     0.0310 ca         1 K51      -0.073000
      5 C12         -3.5120     1.1390    -0.0340 ca         1 K51      -0.105500
      6 C7          -2.1620     0.8880     0.2570 ca         1 K51       0.026200
      7 C8          -1.7950    -0.4190     0.6060 ca         1 K51      -0.105500
      8 C9          -2.7390    -1.4270     0.6700 ca         1 K51      -0.073000
      9 C5          -1.2320     2.0010     0.2050 cc         1 K51      -0.098300
     10 C6          -1.4960     3.3650     0.1920 cd         1 K51      -0.039400
     11 N3          -0.3740     4.0970     0.1450 nd         1 K51      -0.260600
     12 C1           0.6140     3.2120     0.1240 cc         1 K51      -0.157000
     13 C2           2.0140     3.3810     0.0590 cc         1 K51       0.011000
     14 C3           2.7910     2.2760     0.0370 cd         1 K51      -0.207000
     15 C4           2.1700     0.9790     0.0810 cd         1 K51       0.605900
     16 N1           0.8710     0.8150     0.1420 nc         1 K51      -0.605800
     17 N2           0.1360     1.9320     0.1660 na         1 K51       0.294900
     18 N5           2.9620    -0.1090     0.0570 nu         1 K51      -0.934100
     19 C14          2.5140    -1.4860     0.1340 c3         1 K51       0.246500
     20 C15          3.2580    -2.1820     1.2650 c3         1 K51       0.143600
     21 O1           4.6290    -2.2420     0.9390 oh         1 K51      -0.668000
     22 C16          2.6380    -2.1870    -1.2320 c3         1 K51      -0.070700
     23 C17          2.2590    -3.6620    -1.1490 c3         1 K51      -0.088100
     24 C18          1.7790    -1.4820    -2.2790 c3         1 K51      -0.088100
     25 H11         -5.4920     0.3590    -0.1980 ha         1 K51       0.123500
     26 H12         -3.8290     2.1310    -0.3280 ha         1 K51       0.129000
     27 H8          -0.7670    -0.6530     0.8320 ha         1 K51       0.129000
     28 H9          -2.4340    -2.4270     0.9460 ha         1 K51       0.123500
     29 H6          -2.4690     3.8320     0.2340 h4         1 K51       0.229000
     30 H2           2.4290     4.3790     0.0250 ha         1 K51       0.148000
     31 H3           3.8690     2.3470    -0.0090 ha         1 K51       0.133000
     32 HN5          3.9550     0.0450     0.0020 hn         1 K51       0.507000
     33 H14          1.4600    -1.4740     0.4180 h1         1 K51       0.080700
     34 H151         3.0870    -1.6120     2.1860 h1         1 K51       0.032700
     35 H152         2.8320    -3.1790     1.4250 h1         1 K51       0.032700
     36 HO1          5.1110    -2.5520     1.7100 ho         1 K51       0.448000
     37 H16          3.6840    -2.1230    -1.5520 hc         1 K51       0.060700
     38 H171         1.2450    -3.7910    -0.7610 hc         1 K51       0.036867
     39 H172         2.2880    -4.1160    -2.1400 hc         1 K51       0.036867
     40 H173         2.9370    -4.2320    -0.5130 hc         1 K51       0.036867
     41 H181         2.0710    -0.4420    -2.4180 hc         1 K51       0.036867
     42 H182         1.8730    -1.9790    -3.2450 hc         1 K51       0.036867
     43 H183         0.7230    -1.5000    -1.9980 hc         1 K51       0.036867
@<TRIPOS>BOND
     1     1     2 3   
     2     2     3 1   
     3     3     4 ar  
     4     3     8 ar  
     5     4     5 ar  
     6     4    25 1   
     7     5     6 ar  
     8     5    26 1   
     9     6     7 ar  
    10     6     9 1   
    11     7     8 ar  
    12     7    27 1   
    13     8    28 1   
    14     9    10 2   
    15     9    17 1   
    16    10    11 1   
    17    10    29 1   
    18    11    12 2   
    19    12    13 1   
    20    12    17 1   
    21    13    14 2   
    22    13    30 1   
    23    14    15 1   
    24    14    31 1   
    25    15    16 2   
    26    15    18 1   
    27    16    17 1   
    28    18    19 1   
    29    18    32 1   
    30    19    20 1   
    31    19    22 1   
    32    19    33 1   
    33    20    21 1   
    34    20    34 1   
    35    20    35 1   
    36    21    36 1   
    37    22    23 1   
    38    22    24 1   
    39    22    37 1   
    40    23    38 1   
    41    23    39 1   
    42    23    40 1   
    43    24    41 1   
    44    24    42 1   
    45    24    43 1   
@<TRIPOS>SUBSTRUCTURE
     1 K51         1 TEMP              0 ****  ****    0 ROOT
