@<TRIPOS>MOLECULE
K51
   43    45     1     0     0
SMALL
No Charge or Current Charge


@<TRIPOS>ATOM
      1 N4          -6.0820    -2.9420     0.4440 n1         1 K51      -0.457000
      2 C13         -5.2580    -2.1150     0.4080 cg         1 K51       0.327000
      3 C10         -4.2500    -1.0910     0.3700 ca         1 K51      -0.024000
      4 C11         -4.5180     0.1460    -0.2450 ca         1 K51      -0.073000
      5 C12         -3.5310     1.1470    -0.2820 ca         1 K51      -0.105500
      6 C7          -2.2610     0.9280     0.2920 ca         1 K51       0.026200
      7 C8          -2.0030    -0.3120     0.9120 ca         1 K51      -0.105500
      8 C9          -2.9880    -1.3150     0.9500 ca         1 K51      -0.073000
      9 C5          -1.2420     1.9850     0.2470 cc         1 K51      -0.098300
     10 C6          -1.5280     3.3350     0.2980 cd         1 K51      -0.039400
     11 N3          -0.3530     4.0840     0.2800 nd         1 K51      -0.260600
     12 C1           0.6310     3.2020     0.2240 cc         1 K51      -0.157000
     13 C2           2.0340     3.4050     0.1660 cc         1 K51       0.011000
     14 C3           2.8200     2.2820     0.0910 cd         1 K51      -0.207000
     15 C4           2.1660     1.0000     0.0670 cd         1 K51       0.605900
     16 N1           0.8580     0.7640     0.1170 nc         1 K51      -0.605800
     17 N2           0.1260     1.9290     0.2240 na         1 K51       0.294900
     18 N5           2.9670    -0.0960    -0.0280 nu         1 K51      -0.934100
     19 C14          2.5920    -1.5230     0.1070 c3         1 K51       0.246500
     20 C15          3.5120    -2.1690     1.1980 c3         1 K51       0.143600
     21 O1           4.9130    -2.0430     0.8700 oh         1 K51      -0.668000
     22 C16          2.6510    -2.2320    -1.2900 c3         1 K51      -0.070700
     23 C17          2.3490    -3.7510    -1.2060 c3         1 K51      -0.088100
     24 C18          1.7050    -1.5740    -2.3300 c3         1 K51      -0.088100
     25 H11         -5.4900     0.3330    -0.6990 ha         1 K51       0.123500
     26 H12         -3.7560     2.0910    -0.7720 ha         1 K51       0.129000
     27 H8          -1.0420    -0.5030     1.3810 ha         1 K51       0.129000
     28 H9          -2.7680    -2.2650     1.4350 ha         1 K51       0.123500
     29 H6          -2.5020     3.8130     0.3560 h4         1 K51       0.229000
     30 H2           2.4510     4.4080     0.1740 ha         1 K51       0.148000
     31 H3           3.8980     2.3630     0.0400 ha         1 K51       0.133000
     32 HN5          3.9620     0.1060     0.0380 hn         1 K51       0.507000
     33 H14          1.5610    -1.6200     0.4790 h1         1 K51       0.080700
     34 H151         3.3100    -1.6680     2.1550 h1         1 K51       0.032700
     35 H152         3.2410    -3.2240     1.3360 h1         1 K51       0.032700
     36 HO1          5.4190    -2.4600     1.6030 ho         1 K51       0.448000
     37 H16          3.6740    -2.1290    -1.6740 hc         1 K51       0.060700
     38 H171         1.3730    -3.9300    -0.7380 hc         1 K51       0.036867
     39 H172         2.3340    -4.1990    -2.2070 hc         1 K51       0.036867
     40 H173         3.1150    -4.2800    -0.6280 hc         1 K51       0.036867
     41 H181         1.9800    -0.5290    -2.5150 hc         1 K51       0.036867
     42 H182         1.7570    -2.1000    -3.2910 hc         1 K51       0.036867
     43 H183         0.6650    -1.6000    -1.9820 hc         1 K51       0.036867
@<TRIPOS>BOND
     1     1     2 3   
     2     2     3 1   
     3     3     4 ar  
     4     3     8 ar  
     5     4     5 ar  
     6     4    25 1   
     7     5     6 ar  
     8     5    26 1   
     9     6     7 ar  
    10     6     9 1   
    11     7     8 ar  
    12     7    27 1   
    13     8    28 1   
    14     9    10 2   
    15     9    17 1   
    16    10    11 1   
    17    10    29 1   
    18    11    12 2   
    19    12    13 1   
    20    12    17 1   
    21    13    14 2   
    22    13    30 1   
    23    14    15 1   
    24    14    31 1   
    25    15    16 2   
    26    15    18 1   
    27    16    17 1   
    28    18    19 1   
    29    18    32 1   
    30    19    20 1   
    31    19    22 1   
    32    19    33 1   
    33    20    21 1   
    34    20    34 1   
    35    20    35 1   
    36    21    36 1   
    37    22    23 1   
    38    22    24 1   
    39    22    37 1   
    40    23    38 1   
    41    23    39 1   
    42    23    40 1   
    43    24    41 1   
    44    24    42 1   
    45    24    43 1   
@<TRIPOS>SUBSTRUCTURE
     1 K51         1 TEMP              0 ****  ****    0 ROOT
