@<TRIPOS>MOLECULE
K52
   52    54     1     0     0
SMALL
No Charge or Current Charge


@<TRIPOS>ATOM
      1 C4           2.5760     2.1920     0.5760 ca         1 K52      -0.122500
      2 C5           0.3860     3.8020    -1.8680 c3         1 K52      -0.107100
      3 C7           2.9130     0.1870    -1.3630 ca         1 K52      -0.003000
      4 C8           3.6750     1.3190     0.6560 ca         1 K52      -0.003000
      5 C15         -4.3070    -0.0180     0.3040 cc         1 K52       0.303500
      6 C20         -6.3970    -3.1970     0.3570 ca         1 K52      -0.114500
      7 C21         -5.4680    -4.1570    -0.0690 ca         1 K52      -0.104000
      8 C22         -4.1550    -3.7670    -0.3750 ca         1 K52      -0.114500
      9 C28          3.7340    -2.8990     0.6590 c          1 K52       0.635100
     10 C1           1.6410     2.0760    -0.4700 ca         1 K52      -0.045300
     11 C2           0.4450     3.0240    -0.5370 c3         1 K52       0.155000
     12 C3           1.8160     1.0620    -1.4360 ca         1 K52      -0.122500
     13 N6          -0.7940     2.2860    -0.3000 ns         1 K52      -0.497900
     14 C9           3.8500     0.3140    -0.3170 ca         1 K52      -0.287500
     15 O11         -2.0920     4.0340     0.3680 o          1 K52      -0.607100
     16 C12         -3.0770     1.8550     0.2740 cd         1 K52      -0.225600
     17 N13         -4.3940     2.0770     0.6860 na         1 K52       0.182800
     18 N14         -5.1530     0.9140     0.7040 nd         1 K52      -0.510800
     19 C16         -3.0290     0.5080     0.0300 cc         1 K52      -0.187000
     20 C18         -4.6950    -1.4370     0.1730 ca         1 K52      -0.115500
     21 C19         -6.0150    -1.8500     0.4780 ca         1 K52      -0.090500
     22 C23         -3.7710    -2.4190    -0.2560 ca         1 K52      -0.090500
     23 S24          5.2540    -0.8120    -0.2070 sy         1 K52       1.181300
     24 O25          5.4560    -1.4480    -1.5140 o          1 K52      -0.526000
     25 O26          6.3500    -0.1370     0.4950 o          1 K52      -0.526000
     26 N27          4.7550    -2.0220     0.8350 ns         1 K52      -0.594300
     27 O29          3.0300    -2.9210    -0.3370 o          1 K52      -0.552100
     28 C30          3.5290    -3.8640     1.8170 c3         1 K52      -0.182100
     29 H1           2.4540     2.9620     1.3350 ha         1 K52       0.122500
     30 H2          -0.4200     4.5440    -1.8490 hc         1 K52       0.049033
     31 H3           1.3300     4.3330    -2.0410 hc         1 K52       0.049033
     32 H4           0.2090     3.1290    -2.7150 hc         1 K52       0.049033
     33 H5           3.0240    -0.5910    -2.1170 ha         1 K52       0.141500
     34 H6           4.3850     1.4290     1.4750 ha         1 K52       0.141500
     35 H7          -4.9330     4.0630     0.2350 h1         1 K52       0.067033
     36 H8          -6.0470     3.2180     1.3490 h1         1 K52       0.067033
     37 H9          -4.4520     3.7730     1.9350 h1         1 K52       0.067033
     38 H11         -5.7630    -5.2000    -0.1620 ha         1 K52       0.112000
     39 H12         -3.4330    -4.5090    -0.7060 ha         1 K52       0.112500
     40 H13          0.5520     3.7630     0.2700 h1         1 K52       0.081700
     41 H14          1.1000     0.9470    -2.2460 ha         1 K52       0.122500
     42 H15         -0.7940     1.2880    -0.4540 hn         1 K52       0.326500
     43 H16         -2.1770    -0.0660    -0.3100 ha         1 K52       0.143000
     44 H17         -6.7570    -1.1270     0.8110 ha         1 K52       0.118500
     45 H18         -2.7470    -2.1560    -0.5010 ha         1 K52       0.118500
     46 H19          5.2920    -2.0330     1.6850 hn         1 K52       0.346500
     47 H20          2.6990    -4.5570     1.6440 hc         1 K52       0.069700
     48 H21          4.4680    -4.3950     2.0090 hc         1 K52       0.069700
     49 H22          3.3910    -3.2890     2.7400 hc         1 K52       0.069700
     50 C10         -1.9750     2.8410     0.1290 c          1 K52       0.642700
     51 H10         -7.4150    -3.4960     0.5960 ha         1 K52       0.112500
     52 C17         -4.9950     3.3620     1.0760 c3         1 K52       0.072900
@<TRIPOS>BOND
     1     1     4 ar  
     2     1    10 ar  
     3     1    29 1   
     4     2    11 1   
     5     2    30 1   
     6     2    31 1   
     7     2    32 1   
     8     3    12 ar  
     9     3    14 ar  
    10     3    33 1   
    11     4    14 ar  
    12     4    34 1   
    13     5    18 2   
    14     5    19 1   
    15     5    20 1   
    16     6     7 ar  
    17     6    21 ar  
    18     6    51 1   
    19     7     8 ar  
    20     7    38 1   
    21     8    22 ar  
    22     8    39 1   
    23     9    26 1   
    24     9    27 2   
    25     9    28 1   
    26    10    11 1   
    27    10    12 ar  
    28    11    13 1   
    29    11    40 1   
    30    12    41 1   
    31    13    42 1   
    32    13    50 1   
    33    14    23 1   
    34    15    50 2   
    35    16    17 1   
    36    16    19 2   
    37    16    50 1   
    38    17    18 1   
    39    17    52 1   
    40    19    43 1   
    41    20    21 ar  
    42    20    22 ar  
    43    21    44 1   
    44    22    45 1   
    45    23    24 2   
    46    23    25 2   
    47    23    26 1   
    48    26    46 1   
    49    28    47 1   
    50    28    48 1   
    51    28    49 1   
    52    35    52 1   
    53    36    52 1   
    54    37    52 1   
@<TRIPOS>SUBSTRUCTURE
     1 K52         1 TEMP              0 ****  ****    0 ROOT
