@<TRIPOS>MOLECULE
K52
   52    54     1     0     0
SMALL
abcg2


@<TRIPOS>ATOM
      1 C4           2.5570     2.2210     0.4290 ca         1 K52      -0.122500
      2 C5           0.3040     3.3200    -2.2140 c3         1 K52      -0.107100
      3 C7           3.1350     0.1240    -1.3020 ca         1 K52      -0.003000
      4 C8           3.7140     1.4840     0.6140 ca         1 K52      -0.003000
      5 C15         -4.3930    -0.1760     0.1730 cc         1 K52       0.303500
      6 C20         -7.0510    -2.8370     0.2000 ca         1 K52      -0.114500
      7 C21         -6.5220    -3.7720    -0.6810 ca         1 K52      -0.104000
      8 C22         -5.2950    -3.5250    -1.2810 ca         1 K52      -0.114500
      9 C28          4.1730    -2.5100     1.1880 c          1 K52       0.635100
     10 C1           1.6860     1.9320    -0.6170 ca         1 K52      -0.045300
     11 C2           0.4300     2.7510    -0.8030 c3         1 K52       0.155000
     12 C3           1.9880     0.8810    -1.4790 ca         1 K52      -0.122500
     13 N6          -0.7210     1.9360    -0.4440 ns         1 K52      -0.497900
     14 C9           3.9880     0.4370    -0.2550 ca         1 K52      -0.287500
     15 O11         -1.9820     3.6460     0.3290 o          1 K52      -0.607100
     16 C12         -2.9490     1.4890     0.2490 cd         1 K52      -0.225600
     17 N13         -4.0000     1.7090     1.0710 na         1 K52       0.182800
     18 N14         -4.8670     0.7150     1.0360 nd         1 K52      -0.510800
     19 C16         -3.1710     0.2680    -0.3530 cc         1 K52      -0.187000
     20 C18         -5.1260    -1.4110    -0.1180 ca         1 K52      -0.115500
     21 C19         -6.3610    -1.6680     0.4800 ca         1 K52      -0.090500
     22 C23         -4.6030    -2.3560    -1.0010 ca         1 K52      -0.090500
     23 S24          5.4760    -0.4850    -0.0260 sy         1 K52       1.181300
     24 O25          5.7380    -1.2620    -1.2190 o          1 K52      -0.526000
     25 O26          6.5000     0.3940     0.5070 o          1 K52      -0.526000
     26 N27          5.1300    -1.5200     1.2440 ns         1 K52      -0.594300
     27 O29          3.5090    -2.6880     0.1930 o          1 K52      -0.552100
     28 C30          4.0580    -3.3080     2.4530 c3         1 K52      -0.182100
     29 H1           2.3380     3.0380     1.1050 ha         1 K52       0.122500
     30 H2          -0.5830     3.9490    -2.2860 hc         1 K52       0.049033
     31 H3           1.1730     3.9320    -2.4550 hc         1 K52       0.049033
     32 H4           0.2210     2.5310    -2.9620 hc         1 K52       0.049033
     33 H5           3.3530    -0.6860    -1.9820 ha         1 K52       0.141500
     34 H6           4.3850     1.7340     1.4250 ha         1 K52       0.141500
     35 H7          -4.4790     3.7330     1.3730 h1         1 K52       0.067033
     36 H8          -5.1210     2.5780     2.5540 h1         1 K52       0.067033
     37 H9          -3.4090     3.0250     2.5940 h1         1 K52       0.067033
     38 H11         -7.0630    -4.6830    -0.9000 ha         1 K52       0.112000
     39 H12         -4.8710    -4.2440    -1.9700 ha         1 K52       0.112500
     40 H13          0.4650     3.5840    -0.1000 h1         1 K52       0.081700
     41 H14          1.3330     0.6430    -2.3070 ha         1 K52       0.122500
     42 H15         -0.6720     0.9440    -0.6120 hn         1 K52       0.326500
     43 H16         -2.5490    -0.2160    -1.0890 ha         1 K52       0.143000
     44 H17         -6.7870    -0.9490     1.1670 ha         1 K52       0.118500
     45 H18         -3.6460    -2.1840    -1.4780 ha         1 K52       0.118500
     46 H19          5.6370    -1.3430     2.1030 hn         1 K52       0.346500
     47 H20          3.2530    -4.0320     2.3670 hc         1 K52       0.069700
     48 H21          4.9920    -3.8340     2.6520 hc         1 K52       0.069700
     49 H22          3.8630    -2.6540     3.3040 hc         1 K52       0.069700
     50 C10         -1.8500     2.4620     0.0570 c          1 K52       0.642700
     51 H10         -8.0080    -3.0180     0.6710 ha         1 K52       0.112500
     52 C17         -4.2600     2.8360     1.9460 c3         1 K52       0.072900
@<TRIPOS>BOND
     1     1     4 ar  
     2     1    10 ar  
     3     1    29 1   
     4     2    11 1   
     5     2    30 1   
     6     2    31 1   
     7     2    32 1   
     8     3    12 ar  
     9     3    14 ar  
    10     3    33 1   
    11     4    14 ar  
    12     4    34 1   
    13     5    18 2   
    14     5    19 1   
    15     5    20 1   
    16     6     7 ar  
    17     6    21 ar  
    18     6    51 1   
    19     7     8 ar  
    20     7    38 1   
    21     8    22 ar  
    22     8    39 1   
    23     9    26 1   
    24     9    27 2   
    25     9    28 1   
    26    10    11 1   
    27    10    12 ar  
    28    11    13 1   
    29    11    40 1   
    30    12    41 1   
    31    13    42 1   
    32    13    50 1   
    33    14    23 1   
    34    15    50 2   
    35    16    17 1   
    36    16    19 2   
    37    16    50 1   
    38    17    18 1   
    39    17    52 1   
    40    19    43 1   
    41    20    21 ar  
    42    20    22 ar  
    43    21    44 1   
    44    22    45 1   
    45    23    24 2   
    46    23    25 2   
    47    23    26 1   
    48    26    46 1   
    49    28    47 1   
    50    28    48 1   
    51    28    49 1   
    52    35    52 1   
    53    36    52 1   
    54    37    52 1   
@<TRIPOS>SUBSTRUCTURE
     1 K52         1 TEMP              0 ****  ****    0 ROOT
