@<TRIPOS>MOLECULE
K53
   79    83     1     0     0
SMALL
abcg2


@<TRIPOS>ATOM
      1 C2           0.6470     3.8820    -0.2250 ca         1 K53       0.107100
      2 C3           0.1760     2.7380     0.4110 ca         1 K53       0.031100
      3 C4           1.0200     1.8090     0.9570 ca         1 K53      -0.012000
      4 C5           2.3940     2.0690     0.8200 ca         1 K53      -0.305500
      5 C6           2.8710     3.2060     0.1880 ca         1 K53      -0.008000
      6 C7           1.9880     4.1440    -0.3540 ca         1 K53      -0.129000
      7 S8           3.5540     0.8870     1.4510 sy         1 K53       1.184600
      8 O9           4.7890     1.6080     1.7150 o          1 K53      -0.535000
      9 O10          2.9000     0.1650     2.5320 o          1 K53      -0.535000
     10 N11          3.8570    -0.2010     0.2590 n3         1 K53      -0.771500
     11 C12          4.6450     0.2160    -0.9010 c3         1 K53       0.220800
     12 C13          5.8610    -0.6770    -1.1470 c3         1 K53      -0.067700
     13 C14          6.6040    -0.1600    -2.3740 c3         1 K53      -0.089100
     14 C15          6.7750    -0.7460     0.0680 c3         1 K53      -0.089100
     15 C16          3.0800    -1.4270     0.1770 c3         1 K53       0.186800
     16 C17          1.7650    -1.3250    -0.6000 c3         1 K53       0.120300
     17 C18         -1.5650     4.0110    -0.1060 c5         1 K53       0.366600
     18 O18          1.9380    -1.2840    -1.9960 oh         1 K53      -0.654000
     19 C19          0.7910    -2.4310    -0.1660 c3         1 K53       0.084700
     20 O19         -0.3960     4.6130    -0.6580 os         1 K53      -0.342100
     21 N20         -0.5250    -2.1980    -0.7210 ns         1 K53      -0.488900
     22 C21         -1.4880    -1.5310    -0.0790 c          1 K53       0.588100
     23 O22         -1.3810    -1.0360     1.0290 o          1 K53      -0.563100
     24 N24         -3.9200     0.5560    -0.3820 n          1 K53      -0.241400
     25 C25         -3.0010     0.0360    -1.3760 c5         1 K53       0.081000
     26 C26         -4.4080    -0.4320     0.3940 c          1 K53       0.712100
     27 O27         -5.2350    -0.3390     1.2790 o          1 K53      -0.546000
     28 O28         -3.8590    -1.6000     0.0600 os         1 K53      -0.377100
     29 C29         -2.7930    -1.3940    -0.8580 c5         1 K53       0.066300
     30 O29         -1.1740     2.7320     0.3770 os         1 K53      -0.328100
     31 C32          1.2580    -3.8400    -0.5430 c3         1 K53      -0.045100
     32 C33         -0.6320    -5.5040    -0.6980 ca         1 K53      -0.104000
     33 C34         -1.4680    -6.4570    -0.1300 ca         1 K53      -0.103500
     34 C35         -1.3080    -6.8200     1.2000 ca         1 K53      -0.101000
     35 C36         -0.3050    -6.2260     1.9560 ca         1 K53      -0.103500
     36 C37          0.5270    -5.2750     1.3840 ca         1 K53      -0.104000
     37 C38          0.3740    -4.9010     0.0510 ca         1 K53      -0.088300
     38 C40         -5.1930     4.5530    -0.5260 ca         1 K53      -0.093000
     39 C41         -5.0140     3.9360     0.7000 ca         1 K53      -0.144000
     40 C42         -4.6070     2.6060     0.7890 ca         1 K53       0.160100
     41 C43         -4.3930     1.8850    -0.3960 ca         1 K53      -0.101000
     42 C44         -4.5990     2.5080    -1.6250 ca         1 K53      -0.115000
     43 C45         -4.9910     3.8350    -1.6970 ca         1 K53      -0.136000
     44 H4           0.6370     0.9310     1.4610 ha         1 K53       0.167000
     45 H6           3.9330     3.3950     0.1200 ha         1 K53       0.138000
     46 H7           2.3530     5.0360    -0.8420 ha         1 K53       0.138000
     47 H12          4.0080     0.2410    -1.7880 h1         1 K53       0.055700
     48 H12A         4.9980     1.2370    -0.7480 h1         1 K53       0.055700
     49 H13          5.5130    -1.6910    -1.3770 hc         1 K53       0.038700
     50 H14          6.9970     0.8450    -2.1990 hc         1 K53       0.038533
     51 H14A         7.4490    -0.8040    -2.6200 hc         1 K53       0.038533
     52 H14B         5.9560    -0.1150    -3.2510 hc         1 K53       0.038533
     53 H15          7.1400     0.2460     0.3410 hc         1 K53       0.038533
     54 H15A         6.2650    -1.1630     0.9360 hc         1 K53       0.038533
     55 H15B         7.6410    -1.3750    -0.1420 hc         1 K53       0.038533
     56 H16          3.7290    -2.1840    -0.2710 h1         1 K53       0.073700
     57 H16A         2.8830    -1.7800     1.1880 h1         1 K53       0.073700
     58 H17          1.2900    -0.3760    -0.3420 h1         1 K53       0.087700
     59 H18         -1.9400     4.6240     0.7190 h2         1 K53       0.075700
     60 H18A        -2.3200     3.9010    -0.8820 h2         1 K53       0.075700
     61 HO18         2.5090    -2.0090    -2.2720 ho         1 K53       0.441000
     62 H19          0.6930    -2.3710     0.9200 h1         1 K53       0.100700
     63 HN20        -0.7090    -2.5380    -1.6520 hn         1 K53       0.317500
     64 H25         -3.4410     0.0260    -2.3740 h1         1 K53       0.072200
     65 H25A        -2.0840     0.6240    -1.4050 h1         1 K53       0.072200
     66 H29         -2.8770    -2.1280    -1.6590 h1         1 K53       0.090700
     67 H32          1.2850    -3.9450    -1.6310 hc         1 K53       0.051700
     68 H32A         2.2830    -3.9810    -0.1910 hc         1 K53       0.051700
     69 H33         -0.7610    -5.2330    -1.7400 ha         1 K53       0.107500
     70 H34         -2.2440    -6.9170    -0.7300 ha         1 K53       0.116000
     71 H35         -1.9570    -7.5640     1.6450 ha         1 K53       0.117000
     72 H36         -0.1690    -6.5070     2.9930 ha         1 K53       0.116000
     73 H37          1.3100    -4.8210     1.9820 ha         1 K53       0.107500
     74 H40         -5.4960     5.5910    -0.5650 ha         1 K53       0.119000
     75 H41         -5.1730     4.4860     1.6190 ha         1 K53       0.134000
     76 H44         -4.4420     1.9550    -2.5410 ha         1 K53       0.112000
     77 H45         -5.1360     4.2990    -2.6630 ha         1 K53       0.119000
     78 HO46        -4.7230     1.1670     2.0360 ho         1 K53       0.508000
     79 O46         -4.4030     2.0900     2.0150 oh         1 K53      -0.552100
@<TRIPOS>BOND
     1     1     2 ar  
     2     1     6 ar  
     3     1    20 1   
     4     2     3 ar  
     5     2    30 1   
     6     3     4 ar  
     7     3    44 1   
     8     4     5 ar  
     9     4     7 1   
    10     5     6 ar  
    11     5    45 1   
    12     6    46 1   
    13     7     8 2   
    14     7     9 2   
    15     7    10 1   
    16    10    11 1   
    17    10    15 1   
    18    11    12 1   
    19    11    47 1   
    20    11    48 1   
    21    12    13 1   
    22    12    14 1   
    23    12    49 1   
    24    13    50 1   
    25    13    51 1   
    26    13    52 1   
    27    14    53 1   
    28    14    54 1   
    29    14    55 1   
    30    15    16 1   
    31    15    56 1   
    32    15    57 1   
    33    16    18 1   
    34    16    19 1   
    35    16    58 1   
    36    17    20 1   
    37    17    30 1   
    38    17    59 1   
    39    17    60 1   
    40    18    61 1   
    41    19    21 1   
    42    19    31 1   
    43    19    62 1   
    44    21    22 1   
    45    21    63 1   
    46    22    23 2   
    47    22    29 1   
    48    24    25 1   
    49    24    26 1   
    50    24    41 1   
    51    25    29 1   
    52    25    64 1   
    53    25    65 1   
    54    26    27 2   
    55    26    28 1   
    56    28    29 1   
    57    29    66 1   
    58    31    37 1   
    59    31    67 1   
    60    31    68 1   
    61    32    33 ar  
    62    32    37 ar  
    63    32    69 1   
    64    33    34 ar  
    65    33    70 1   
    66    34    35 ar  
    67    34    71 1   
    68    35    36 ar  
    69    35    72 1   
    70    36    37 ar  
    71    36    73 1   
    72    38    39 ar  
    73    38    43 ar  
    74    38    74 1   
    75    39    40 ar  
    76    39    75 1   
    77    40    41 ar  
    78    40    79 1   
    79    41    42 ar  
    80    42    43 ar  
    81    42    76 1   
    82    43    77 1   
    83    78    79 1   
@<TRIPOS>SUBSTRUCTURE
     1 K53         1 TEMP              0 ****  ****    0 ROOT
