@<TRIPOS>MOLECULE
K53
   79    83     1     0     0
SMALL
No Charge or Current Charge


@<TRIPOS>ATOM
      1 C2           0.9570     4.1350     0.0360 ca         1 K53       0.107100
      2 C3           0.3430     3.0450     0.5830 ca         1 K53       0.031100
      3 C4           1.0690     2.0260     1.2090 ca         1 K53      -0.012000
      4 C5           2.4820     2.1350     1.2430 ca         1 K53      -0.305500
      5 C6           3.1140     3.2860     0.7000 ca         1 K53      -0.008000
      6 C7           2.3460     4.2980     0.0850 ca         1 K53      -0.129000
      7 S8           3.4680     0.8300     2.0100 sy         1 K53       1.184600
      8 O9           4.7230     1.3800     2.5340 o          1 K53      -0.535000
      9 O10          2.5740     0.0410     2.8660 o          1 K53      -0.535000
     10 N11          3.9130    -0.1840     0.7000 n3         1 K53      -0.771500
     11 C12          4.2370     0.5260    -0.5630 c3         1 K53       0.220800
     12 C13          5.0780    -0.2790    -1.5940 c3         1 K53      -0.067700
     13 C14          5.3170     0.5500    -2.8760 c3         1 K53      -0.089100
     14 C15          6.4190    -0.7770    -1.0000 c3         1 K53      -0.089100
     15 C16          3.1620    -1.4710     0.5620 c3         1 K53       0.186800
     16 C17          1.7060    -1.3780    -0.0080 c3         1 K53       0.120300
     17 C18         -1.2090     4.3000    -0.3600 c5         1 K53       0.366600
     18 O18          1.7000    -1.1250    -1.4330 oh         1 K53      -0.654000
     19 C19          0.8290    -2.6250     0.3190 c3         1 K53       0.084700
     20 O19          0.0720     5.0110    -0.5030 os         1 K53      -0.342100
     21 N20         -0.5560    -2.4160    -0.1310 ns         1 K53      -0.488900
     22 C21         -1.4960    -1.6670     0.5500 c          1 K53       0.588100
     23 O22         -1.2800    -1.1570     1.6420 o          1 K53      -0.563100
     24 N24         -3.7800     0.4690    -0.2660 n          1 K53      -0.241400
     25 C25         -2.9000    -0.3750    -1.0950 c5         1 K53       0.081000
     26 C26         -4.3910    -0.2860     0.7460 c          1 K53       0.712100
     27 O27         -5.2480     0.1070     1.5250 o          1 K53      -0.546000
     28 O28         -3.9680    -1.5780     0.6690 os         1 K53      -0.377100
     29 C29         -2.8380    -1.6730    -0.2400 c5         1 K53       0.066300
     30 O29         -1.0070     3.0970     0.4610 os         1 K53      -0.328100
     31 C32          1.3780    -3.9680    -0.2330 c3         1 K53      -0.045100
     32 C33         -0.2600    -5.7930    -0.9310 ca         1 K53      -0.104000
     33 C34         -1.1040    -6.8750    -0.6270 ca         1 K53      -0.103500
     34 C35         -1.2240    -7.3230     0.7000 ca         1 K53      -0.101000
     35 C36         -0.4980    -6.6890     1.7220 ca         1 K53      -0.103500
     36 C37          0.3460    -5.6070     1.4180 ca         1 K53      -0.104000
     37 C38          0.4690    -5.1510     0.0900 ca         1 K53      -0.088300
     38 C40         -4.5990     4.5510    -1.3620 ca         1 K53      -0.093000
     39 C41         -4.6760     4.1820    -0.0130 ca         1 K53      -0.144000
     40 C42         -4.4050     2.8630     0.3880 ca         1 K53       0.160100
     41 C43         -3.9830     1.8850    -0.5650 ca         1 K53      -0.101000
     42 C44         -3.9750     2.2710    -1.9280 ca         1 K53      -0.115000
     43 C45         -4.2590     3.5890    -2.3200 ca         1 K53      -0.136000
     44 H4           0.5410     1.1860     1.6560 ha         1 K53       0.167000
     45 H6           4.1960     3.3990     0.7490 ha         1 K53       0.138000
     46 H7           2.8170     5.1800    -0.3390 ha         1 K53       0.138000
     47 H12          3.3170     0.8750    -1.0490 h1         1 K53       0.055700
     48 H12A         4.8260     1.4220    -0.3290 h1         1 K53       0.055700
     49 H13          4.5050    -1.1610    -1.8980 hc         1 K53       0.038700
     50 H14          5.8990     1.4530    -2.6560 hc         1 K53       0.038533
     51 H14A         5.8640    -0.0380    -3.6230 hc         1 K53       0.038533
     52 H14B         4.3630     0.8570    -3.3210 hc         1 K53       0.038533
     53 H15          7.0360     0.0670    -0.6690 hc         1 K53       0.038533
     54 H15A         6.2480    -1.4340    -0.1390 hc         1 K53       0.038533
     55 H15B         6.9860    -1.3460    -1.7460 hc         1 K53       0.038533
     56 H16          3.7290    -2.1650    -0.0690 h1         1 K53       0.073700
     57 H16A         3.1120    -1.9690     1.5400 h1         1 K53       0.073700
     58 H17          1.2230    -0.5380     0.4990 h1         1 K53       0.087700
     59 H18         -1.9480     4.9560     0.1170 h2         1 K53       0.075700
     60 H18A        -1.5630     3.9970    -1.3520 h2         1 K53       0.075700
     61 HO18         2.1340    -1.8850    -1.8740 ho         1 K53       0.441000
     62 H19          0.8030    -2.7180     1.4150 h1         1 K53       0.100700
     63 HN20        -0.8330    -2.8180    -1.0180 hn         1 K53       0.317500
     64 H25         -3.3510    -0.5760    -2.0750 h1         1 K53       0.072200
     65 H25A        -1.9140     0.0850    -1.2500 h1         1 K53       0.072200
     66 H29         -2.9160    -2.5900    -0.8390 h1         1 K53       0.090700
     67 H32          1.5170    -3.8890    -1.3180 hc         1 K53       0.051700
     68 H32A         2.3730    -4.1560     0.1880 hc         1 K53       0.051700
     69 H33         -0.1760    -5.4540    -1.9610 ha         1 K53       0.107500
     70 H34         -1.6650    -7.3660    -1.4190 ha         1 K53       0.116000
     71 H35         -1.8770    -8.1610     0.9350 ha         1 K53       0.117000
     72 H36         -0.5890    -7.0350     2.7490 ha         1 K53       0.116000
     73 H37          0.9050    -5.1220     2.2160 ha         1 K53       0.107500
     74 H40         -4.8200     5.5730    -1.6650 ha         1 K53       0.119000
     75 H41         -4.9620     4.9220     0.7310 ha         1 K53       0.134000
     76 H44         -3.7410     1.5510    -2.7080 ha         1 K53       0.112000
     77 H45         -4.2240     3.8610    -3.3730 ha         1 K53       0.119000
     78 HO46        -4.7980     1.6450     1.7990 ho         1 K53       0.508000
     79 O46         -4.5090     2.5900     1.7180 oh         1 K53      -0.552100
@<TRIPOS>BOND
     1     1     2 ar  
     2     1     6 ar  
     3     1    20 1   
     4     2     3 ar  
     5     2    30 1   
     6     3     4 ar  
     7     3    44 1   
     8     4     5 ar  
     9     4     7 1   
    10     5     6 ar  
    11     5    45 1   
    12     6    46 1   
    13     7     8 2   
    14     7     9 2   
    15     7    10 1   
    16    10    11 1   
    17    10    15 1   
    18    11    12 1   
    19    11    47 1   
    20    11    48 1   
    21    12    13 1   
    22    12    14 1   
    23    12    49 1   
    24    13    50 1   
    25    13    51 1   
    26    13    52 1   
    27    14    53 1   
    28    14    54 1   
    29    14    55 1   
    30    15    16 1   
    31    15    56 1   
    32    15    57 1   
    33    16    18 1   
    34    16    19 1   
    35    16    58 1   
    36    17    20 1   
    37    17    30 1   
    38    17    59 1   
    39    17    60 1   
    40    18    61 1   
    41    19    21 1   
    42    19    31 1   
    43    19    62 1   
    44    21    22 1   
    45    21    63 1   
    46    22    23 2   
    47    22    29 1   
    48    24    25 1   
    49    24    26 1   
    50    24    41 1   
    51    25    29 1   
    52    25    64 1   
    53    25    65 1   
    54    26    27 2   
    55    26    28 1   
    56    28    29 1   
    57    29    66 1   
    58    31    37 1   
    59    31    67 1   
    60    31    68 1   
    61    32    33 ar  
    62    32    37 ar  
    63    32    69 1   
    64    33    34 ar  
    65    33    70 1   
    66    34    35 ar  
    67    34    71 1   
    68    35    36 ar  
    69    35    72 1   
    70    36    37 ar  
    71    36    73 1   
    72    38    39 ar  
    73    38    43 ar  
    74    38    74 1   
    75    39    40 ar  
    76    39    75 1   
    77    40    41 ar  
    78    40    79 1   
    79    41    42 ar  
    80    42    43 ar  
    81    42    76 1   
    82    43    77 1   
    83    78    79 1   
@<TRIPOS>SUBSTRUCTURE
     1 K53         1 TEMP              0 ****  ****    0 ROOT
