@<TRIPOS>MOLECULE
K54
   80    84     1     0     0
SMALL
No Charge or Current Charge


@<TRIPOS>ATOM
      1 C1           1.5920    -3.4650    -0.5030 cc         1 K54       0.387100
      2 F1           4.5170    -1.8600     2.5450 f          1 K54      -0.107000
      3 N1           0.5430    -3.8610    -1.2410 nd         1 K54      -0.529100
      4 S1           1.2910    -2.4440     0.9190 ss         1 K54       0.052800
      5 C2          -0.5970    -3.3320    -0.6490 ca         1 K54       0.127400
      6 F2           3.5710    -0.1320     1.6740 f          1 K54      -0.107000
      7 C3          -0.4040    -2.5660     0.4820 ca         1 K54      -0.218000
      8 F3           5.7380    -0.2170     1.8400 f          1 K54      -0.107000
      9 C4          -1.4710    -1.9840     1.1810 ca         1 K54       0.038000
     10 C5          -2.7830    -2.1870     0.7000 ca         1 K54      -0.280500
     11 C6          -2.9930    -2.9840    -0.4510 ca         1 K54      -0.019000
     12 C7          -1.8970    -3.5510    -1.1300 ca         1 K54      -0.070000
     13 S8          -4.1800    -1.4670     1.5800 sy         1 K54       1.188600
     14 O9          -5.2960    -2.4190     1.5890 o          1 K54      -0.534500
     15 O10         -3.7150    -0.8710     2.8380 o          1 K54      -0.534500
     16 N11         -4.6910    -0.1640     0.5920 n3         1 K54      -0.782500
     17 C12         -5.2760    -0.5460    -0.7190 c3         1 K54       0.233800
     18 C13         -6.2350     0.5060    -1.3440 c3         1 K54      -0.072700
     19 C14         -6.7280     0.0460    -2.7350 c3         1 K54      -0.089600
     20 C15         -7.4270     0.8390    -0.4150 c3         1 K54      -0.089600
     21 C16         -3.8280     1.0590     0.5960 c3         1 K54       0.186800
     22 C17         -2.5640     1.0630    -0.3330 c3         1 K54       0.119300
     23 O18         -2.9140     1.2840    -1.7200 oh         1 K54      -0.656000
     24 C19         -1.4810     2.0950     0.1050 c3         1 K54       0.085700
     25 N20         -0.2960     1.9540    -0.7530 ns         1 K54      -0.506900
     26 C21          1.0110     1.9250    -0.3060 c          1 K54       0.591100
     27 O22          1.3230     2.0280     0.8730 o          1 K54      -0.541100
     28 N24          3.4760     0.1160    -1.1190 n          1 K54      -0.286400
     29 C25          2.2060     0.3180    -1.8300 c5         1 K54       0.076000
     30 C26          4.1050     1.3310    -0.8240 c          1 K54       0.710100
     31 O27          5.2720     1.4750    -0.4960 o          1 K54      -0.493000
     32 O28          3.2850     2.3510    -1.2090 os         1 K54      -0.383100
     33 C29          1.9670     1.8240    -1.5320 c5         1 K54       0.067300
     34 C32         -1.9690     3.5720     0.1260 c3         1 K54      -0.045100
     35 C33         -0.1640     5.2880    -0.4100 ca         1 K54      -0.099500
     36 C34          0.8470     6.1800    -0.0140 ca         1 K54      -0.103000
     37 C35          1.1450     6.3440     1.3490 ca         1 K54      -0.099000
     38 C36          0.4310     5.6150     2.3160 ca         1 K54      -0.103000
     39 C37         -0.5790     4.7220     1.9190 ca         1 K54      -0.099500
     40 C38         -0.8820     4.5530     0.5540 ca         1 K54      -0.086300
     41 C40          5.6420    -3.5480    -1.0850 ca         1 K54      -0.113000
     42 C41          5.5140    -2.8280     0.1100 ca         1 K54      -0.057000
     43 C42          4.7570    -1.6330     0.1720 ca         1 K54      -0.177300
     44 C43          4.0920    -1.1800    -1.0090 ca         1 K54       0.022000
     45 C44          4.2850    -1.8900    -2.2130 ca         1 K54      -0.125000
     46 C45          5.0310    -3.0760    -2.2510 ca         1 K54      -0.083000
     47 H1           2.6160    -3.7390    -0.7230 h5         1 K54       0.059800
     48 H4          -1.2790    -1.3900     2.0750 ha         1 K54       0.158000
     49 H6          -3.9990    -3.1710    -0.8190 ha         1 K54       0.124000
     50 H7          -2.0560    -4.1610    -2.0150 ha         1 K54       0.136000
     51 H12         -4.4770    -0.7730    -1.4360 h1         1 K54       0.054200
     52 H12A        -5.8630    -1.4680    -0.6170 h1         1 K54       0.054200
     53 H13         -5.6760     1.4350    -1.5040 hc         1 K54       0.043700
     54 H14         -7.3120    -0.8790    -2.6570 hc         1 K54       0.039200
     55 H14A        -7.3620     0.8140    -3.1950 hc         1 K54       0.039200
     56 H14B        -5.8800    -0.1370    -3.4050 hc         1 K54       0.039200
     57 H15         -8.0230    -0.0580    -0.2090 hc         1 K54       0.039200
     58 H15A        -7.0770     1.2450     0.5420 hc         1 K54       0.039200
     59 H15B        -8.0820     1.5880    -0.8770 hc         1 K54       0.039200
     60 H16         -4.4400     1.9310     0.3290 h1         1 K54       0.074200
     61 H16A        -3.4910     1.2670     1.6210 h1         1 K54       0.074200
     62 H17         -2.0880     0.0820    -0.2480 h1         1 K54       0.086700
     63 HO18        -3.3720     2.1480    -1.7800 ho         1 K54       0.442000
     64 H19         -1.1890     1.8340     1.1320 h1         1 K54       0.098700
     65 HN20        -0.4540     1.8580    -1.7500 hn         1 K54       0.318500
     66 H25          2.3170     0.1410    -2.9080 h1         1 K54       0.067700
     67 H25A         1.4060    -0.3310    -1.4470 h1         1 K54       0.067700
     68 H29          1.5390     2.3740    -2.3800 h1         1 K54       0.095700
     69 H32         -2.3430     3.8470    -0.8670 hc         1 K54       0.047200
     70 H32A        -2.8230     3.6650     0.8070 hc         1 K54       0.047200
     71 H33         -0.3850     5.1650    -1.4680 ha         1 K54       0.105000
     72 H34          1.3990     6.7430    -0.7630 ha         1 K54       0.114000
     73 H35          1.9280     7.0340     1.6560 ha         1 K54       0.115000
     74 H36          0.6620     5.7400     3.3710 ha         1 K54       0.114000
     75 H37         -1.1230     4.1580     2.6730 ha         1 K54       0.105000
     76 H40          6.2290    -4.4640    -1.1100 ha         1 K54       0.126000
     77 H41          6.0150    -3.2070     1.0000 ha         1 K54       0.139000
     78 H44          3.8600    -1.5180    -3.1420 ha         1 K54       0.126000
     79 H45          5.1510    -3.6170    -3.1880 ha         1 K54       0.123000
     80 C46          4.6400    -0.9500     1.5520 c3         1 K54       0.364300
@<TRIPOS>BOND
     1     1     3 2   
     2     1     4 1   
     3     1    47 1   
     4     2    80 1   
     5     3     5 1   
     6     4     7 1   
     7     5     7 ar  
     8     5    12 ar  
     9     6    80 1   
    10     7     9 ar  
    11     8    80 1   
    12     9    10 ar  
    13     9    48 1   
    14    10    11 ar  
    15    10    13 1   
    16    11    12 ar  
    17    11    49 1   
    18    12    50 1   
    19    13    14 2   
    20    13    15 2   
    21    13    16 1   
    22    16    17 1   
    23    16    21 1   
    24    17    18 1   
    25    17    51 1   
    26    17    52 1   
    27    18    19 1   
    28    18    20 1   
    29    18    53 1   
    30    19    54 1   
    31    19    55 1   
    32    19    56 1   
    33    20    57 1   
    34    20    58 1   
    35    20    59 1   
    36    21    22 1   
    37    21    60 1   
    38    21    61 1   
    39    22    23 1   
    40    22    24 1   
    41    22    62 1   
    42    23    63 1   
    43    24    25 1   
    44    24    34 1   
    45    24    64 1   
    46    25    26 1   
    47    25    65 1   
    48    26    27 2   
    49    26    33 1   
    50    28    29 1   
    51    28    30 1   
    52    28    44 1   
    53    29    33 1   
    54    29    66 1   
    55    29    67 1   
    56    30    31 2   
    57    30    32 1   
    58    32    33 1   
    59    33    68 1   
    60    34    40 1   
    61    34    69 1   
    62    34    70 1   
    63    35    36 ar  
    64    35    40 ar  
    65    35    71 1   
    66    36    37 ar  
    67    36    72 1   
    68    37    38 ar  
    69    37    73 1   
    70    38    39 ar  
    71    38    74 1   
    72    39    40 ar  
    73    39    75 1   
    74    41    42 ar  
    75    41    46 ar  
    76    41    76 1   
    77    42    43 ar  
    78    42    77 1   
    79    43    44 ar  
    80    43    80 1   
    81    44    45 ar  
    82    45    46 ar  
    83    45    78 1   
    84    46    79 1   
@<TRIPOS>SUBSTRUCTURE
     1 K54         1 TEMP              0 ****  ****    0 ROOT
