@<TRIPOS>MOLECULE
K54
   80    84     1     0     0
SMALL
abcg2


@<TRIPOS>ATOM
      1 C1           1.5380    -3.9520    -2.4180 cc         1 K54       0.387100
      2 F1           2.4630    -1.4740     3.2100 f          1 K54      -0.107000
      3 N1           0.4400    -3.7730    -3.0620 nd         1 K54      -0.529100
      4 S1           1.5300    -3.5510    -0.7320 ss         1 K54       0.052800
      5 C2          -0.5330    -3.2830    -2.2260 ca         1 K54       0.127400
      6 F2           1.5540    -0.6410     1.4520 f          1 K54      -0.107000
      7 C3          -0.1260    -3.0870    -0.8970 ca         1 K54      -0.218000
      8 F3           3.2530     0.3290     2.3580 f          1 K54      -0.107000
      9 C4          -0.9930    -2.5880     0.0690 ca         1 K54       0.038000
     10 C5          -2.2830    -2.3000    -0.3320 ca         1 K54      -0.280500
     11 C6          -2.7160    -2.4980    -1.6500 ca         1 K54      -0.019000
     12 C7          -1.8460    -2.9840    -2.5990 ca         1 K54      -0.070000
     13 S8          -3.4460    -1.6810     0.8640 sy         1 K54       1.188600
     14 O9          -4.5650    -2.6100     0.8760 o          1 K54      -0.534500
     15 O10         -2.6990    -1.4370     2.0880 o          1 K54      -0.534500
     16 N11         -3.9960    -0.2430     0.3170 n3         1 K54      -0.782500
     17 C12         -5.2080    -0.1460    -0.4960 c3         1 K54       0.233800
     18 C13         -6.3400     0.6100     0.1980 c3         1 K54      -0.072700
     19 C14         -7.5110     0.7250    -0.7720 c3         1 K54      -0.089600
     20 C15         -6.7610    -0.0520     1.5020 c3         1 K54      -0.089600
     21 C16         -3.1630     0.9440     0.4660 c3         1 K54       0.186800
     22 C17         -1.9910     1.0030    -0.5100 c3         1 K54       0.119300
     23 O18         -2.3850     0.8610    -1.8520 oh         1 K54      -0.656000
     24 C19         -1.1110     2.2440    -0.2890 c3         1 K54       0.085700
     25 N20          0.0950     2.0780    -1.0680 ns         1 K54      -0.506900
     26 C21          1.3360     2.1670    -0.5680 c          1 K54       0.591100
     27 O22          1.6180     2.4900     0.5680 o          1 K54      -0.541100
     28 N24          3.5520     0.0390    -0.5380 n          1 K54      -0.286400
     29 C25          2.5300     0.1890    -1.5520 c5         1 K54       0.076000
     30 C26          4.2780     1.1790    -0.4030 c          1 K54       0.710100
     31 O27          5.3050     1.3400     0.2000 o          1 K54      -0.493000
     32 O28          3.6770     2.1620    -1.0970 os         1 K54      -0.383100
     33 C29          2.4130     1.7180    -1.5570 c5         1 K54       0.067300
     34 C32         -1.8020     3.5740    -0.6240 c3         1 K54      -0.045100
     35 C33         -0.1030     5.2590    -1.4120 ca         1 K54      -0.099500
     36 C34          0.7840     6.3010    -1.1710 ca         1 K54      -0.103000
     37 C35          0.8960     6.8410     0.1030 ca         1 K54      -0.099000
     38 C36          0.1160     6.3330     1.1340 ca         1 K54      -0.103000
     39 C37         -0.7660     5.2900     0.8890 ca         1 K54      -0.099500
     40 C38         -0.8860     4.7400    -0.3850 ca         1 K54      -0.086300
     41 C40          4.8540    -3.7200     0.7670 ca         1 K54      -0.113000
     42 C41          4.0800    -2.9310     1.6060 ca         1 K54      -0.057000
     43 C42          3.6430    -1.6830     1.1840 ca         1 K54      -0.177300
     44 C43          4.0090    -1.2160    -0.0800 ca         1 K54       0.022000
     45 C44          4.7790    -2.0090    -0.9150 ca         1 K54      -0.125000
     46 C45          5.1970    -3.2650    -0.4960 ca         1 K54      -0.083000
     47 H1           2.4420    -4.3340    -2.8730 h5         1 K54       0.059800
     48 H4          -0.6690    -2.4340     1.0890 ha         1 K54       0.158000
     49 H6          -3.7320    -2.2680    -1.9390 ha         1 K54       0.124000
     50 H7          -2.1670    -3.1360    -3.6200 ha         1 K54       0.136000
     51 H12         -4.9580     0.3400    -1.4410 h1         1 K54       0.054200
     52 H12A        -5.5590    -1.1460    -0.7490 h1         1 K54       0.054200
     53 H13         -5.9940     1.6250     0.4250 hc         1 K54       0.043700
     54 H14         -7.8990    -0.2610    -1.0380 hc         1 K54       0.039200
     55 H14A        -8.3300     1.2950    -0.3320 hc         1 K54       0.039200
     56 H14B        -7.2180     1.2280    -1.6960 hc         1 K54       0.039200
     57 H15         -7.1190    -1.0690     1.3310 hc         1 K54       0.039200
     58 H15A        -5.9390    -0.1030     2.2160 hc         1 K54       0.039200
     59 H15B        -7.5680     0.5110     1.9720 hc         1 K54       0.039200
     60 H16         -3.8260     1.8010     0.3350 h1         1 K54       0.074200
     61 H16A        -2.7860     1.0160     1.4870 h1         1 K54       0.074200
     62 H17         -1.3420     0.1450    -0.3150 h1         1 K54       0.086700
     63 HO18        -3.0060     1.5610    -2.0820 ho         1 K54       0.442000
     64 H19         -0.8170     2.2620     0.7620 h1         1 K54       0.098700
     65 HN20        -0.0240     1.8550    -2.0450 hn         1 K54       0.318500
     66 H25          2.8520    -0.2030    -2.5210 h1         1 K54       0.067700
     67 H25A         1.6010    -0.3050    -1.2730 h1         1 K54       0.067700
     68 H29          2.2370     2.1150    -2.5580 h1         1 K54       0.095700
     69 H32         -2.1320     3.5720    -1.6670 hc         1 K54       0.047200
     70 H32A        -2.6960     3.6780    -0.0060 hc         1 K54       0.047200
     71 H33         -0.1880     4.8500    -2.4120 ha         1 K54       0.105000
     72 H34          1.3860     6.6920    -1.9810 ha         1 K54       0.114000
     73 H35          1.5840     7.6560     0.2890 ha         1 K54       0.115000
     74 H36          0.1920     6.7510     2.1300 ha         1 K54       0.114000
     75 H37         -1.3710     4.8970     1.6980 ha         1 K54       0.105000
     76 H40          5.1810    -4.6940     1.1020 ha         1 K54       0.126000
     77 H41          3.8140    -3.3100     2.5820 ha         1 K54       0.139000
     78 H44          5.0480    -1.6440    -1.8980 ha         1 K54       0.126000
     79 H45          5.7950    -3.8800    -1.1550 ha         1 K54       0.123000
     80 C46          2.7360    -0.8630     2.0530 c3         1 K54       0.364300
@<TRIPOS>BOND
     1     1     3 2   
     2     1     4 1   
     3     1    47 1   
     4     2    80 1   
     5     3     5 1   
     6     4     7 1   
     7     5     7 ar  
     8     5    12 ar  
     9     6    80 1   
    10     7     9 ar  
    11     8    80 1   
    12     9    10 ar  
    13     9    48 1   
    14    10    11 ar  
    15    10    13 1   
    16    11    12 ar  
    17    11    49 1   
    18    12    50 1   
    19    13    14 2   
    20    13    15 2   
    21    13    16 1   
    22    16    17 1   
    23    16    21 1   
    24    17    18 1   
    25    17    51 1   
    26    17    52 1   
    27    18    19 1   
    28    18    20 1   
    29    18    53 1   
    30    19    54 1   
    31    19    55 1   
    32    19    56 1   
    33    20    57 1   
    34    20    58 1   
    35    20    59 1   
    36    21    22 1   
    37    21    60 1   
    38    21    61 1   
    39    22    23 1   
    40    22    24 1   
    41    22    62 1   
    42    23    63 1   
    43    24    25 1   
    44    24    34 1   
    45    24    64 1   
    46    25    26 1   
    47    25    65 1   
    48    26    27 2   
    49    26    33 1   
    50    28    29 1   
    51    28    30 1   
    52    28    44 1   
    53    29    33 1   
    54    29    66 1   
    55    29    67 1   
    56    30    31 2   
    57    30    32 1   
    58    32    33 1   
    59    33    68 1   
    60    34    40 1   
    61    34    69 1   
    62    34    70 1   
    63    35    36 ar  
    64    35    40 ar  
    65    35    71 1   
    66    36    37 ar  
    67    36    72 1   
    68    37    38 ar  
    69    37    73 1   
    70    38    39 ar  
    71    38    74 1   
    72    39    40 ar  
    73    39    75 1   
    74    41    42 ar  
    75    41    46 ar  
    76    41    76 1   
    77    42    43 ar  
    78    42    77 1   
    79    43    44 ar  
    80    43    80 1   
    81    44    45 ar  
    82    45    46 ar  
    83    45    78 1   
    84    46    79 1   
@<TRIPOS>SUBSTRUCTURE
     1 K54         1 TEMP              0 ****  ****    0 ROOT
