@<TRIPOS>MOLECULE
K55
   59    60     1     0     0
SMALL
No Charge or Current Charge


@<TRIPOS>ATOM
      1 O25          3.8650    -3.0220    -1.7030 o          1 K55      -0.737000
      2 O26          5.9290    -2.4610    -1.9240 o          1 K55      -0.737000
      3 C1           4.9650    -2.7660    -1.2360 c          1 K55       0.718000
      4 C2           5.1430    -2.8460     0.3010 c3         1 K55      -0.192700
      5 C3           6.1590    -3.9470     0.7110 c3         1 K55      -0.047400
      6 C4           5.7760    -5.3640     0.2370 c3         1 K55      -0.077100
      7 C5           5.5300    -1.4660     0.8940 c3         1 K55      -0.007100
      8 C6           4.4530    -0.4070     0.6850 ca         1 K55      -0.069300
      9 C7           3.3160    -0.3830     1.5130 ca         1 K55      -0.058000
     10 C8           2.3150     0.5920     1.3340 ca         1 K55      -0.173300
     11 C9           2.4550     1.5550     0.3100 ca         1 K55       0.141100
     12 C10          3.5950     1.5310    -0.5210 ca         1 K55      -0.204000
     13 C11          4.5870     0.5540    -0.3330 ca         1 K55      -0.036000
     14 O33          1.4540     2.4940     0.1480 os         1 K55      -0.354100
     15 C21          1.4670     3.4650    -0.9100 c3         1 K55       0.168600
     16 C22          0.1660     4.2830    -0.7990 c3         1 K55      -0.085400
     17 C23          0.0350     5.3610    -1.8970 c3         1 K55      -0.073400
     18 C24         -1.2690     6.1740    -1.7900 c3         1 K55      -0.087100
     19 C12          1.0970     0.5940     2.2510 c3         1 K55       0.167300
     20 N27         -0.1310     0.3760     1.4960 ns         1 K55      -0.480900
     21 C13         -1.3790     0.2250     2.0540 c          1 K55       0.619700
     22 O28         -1.5160     0.1820     3.2690 o          1 K55      -0.598100
     23 C14         -2.5370     0.1660     1.0780 ca         1 K55      -0.153600
     24 C15         -3.8170    -0.2750     1.4890 ca         1 K55       0.213000
     25 C16         -4.8900    -0.3200     0.5830 ca         1 K55      -0.125000
     26 C17         -4.7220     0.0720    -0.7620 ca         1 K55      -0.163300
     27 C18         -3.4530     0.5250    -1.1740 ca         1 K55      -0.083000
     28 C19         -2.3760     0.5700    -0.2730 ca         1 K55      -0.068000
     29 C20         -5.8970     0.0350    -1.7470 c3         1 K55       0.356300
     30 F29         -4.0480    -0.6850     2.7560 f          1 K55      -0.156000
     31 F30         -6.5480     1.2180    -1.7790 f          1 K55      -0.113667
     32 F31         -5.4970    -0.2310    -3.0120 f          1 K55      -0.113667
     33 F32         -6.8100    -0.9110    -1.4260 f          1 K55      -0.113667
     34 H2           4.1760    -3.1270     0.7360 hc         1 K55       0.030700
     35 H3           7.1530    -3.6970     0.3190 hc         1 K55       0.016200
     36 H3A          6.2490    -3.9630     1.8040 hc         1 K55       0.016200
     37 H4           4.7880    -5.6480     0.6200 hc         1 K55       0.022367
     38 H4A          5.7550    -5.4220    -0.8580 hc         1 K55       0.022367
     39 H4B          6.5070    -6.0970     0.6010 hc         1 K55       0.022367
     40 H5           5.7150    -1.5790     1.9690 hc         1 K55       0.030200
     41 H5A          6.4830    -1.1350     0.4620 hc         1 K55       0.030200
     42 H7           3.2130    -1.1280     2.3000 ha         1 K55       0.106000
     43 H10          3.7300     2.2570    -1.3170 ha         1 K55       0.107000
     44 H11          5.4610     0.5430    -0.9810 ha         1 K55       0.130000
     45 H21          2.3330     4.1320    -0.8150 h1         1 K55       0.029200
     46 H21A         1.5050     2.9700    -1.8890 h1         1 K55       0.029200
     47 H22         -0.6910     3.6000    -0.8580 hc         1 K55       0.058200
     48 H22A         0.1300     4.7620     0.1870 hc         1 K55       0.058200
     49 H23          0.8900     6.0460    -1.8370 hc         1 K55       0.034700
     50 H23A         0.0770     4.8820    -2.8830 hc         1 K55       0.034700
     51 H24         -2.1440     5.5200    -1.8810 hc         1 K55       0.030367
     52 H24A        -1.3240     6.6950    -0.8260 hc         1 K55       0.030367
     53 H24B        -1.3170     6.9250    -2.5880 hc         1 K55       0.030367
     54 H12          1.1930    -0.1920     3.0110 h1         1 K55       0.054700
     55 H12A         1.0290     1.5610     2.7670 h1         1 K55       0.054700
     56 HN27        -0.0730     0.4070     0.4890 hn         1 K55       0.328500
     57 H16         -5.8580    -0.6640     0.9390 ha         1 K55       0.142000
     58 H18         -3.2950     0.8530    -2.2010 ha         1 K55       0.137000
     59 H19         -1.4240     0.9440    -0.6420 ha         1 K55       0.134000
@<TRIPOS>BOND
     1     1     3 1   
     2     2     3 1   
     3     3     4 1   
     4     4     5 1   
     5     4     7 1   
     6     4    34 1   
     7     5     6 1   
     8     5    35 1   
     9     5    36 1   
    10     6    37 1   
    11     6    38 1   
    12     6    39 1   
    13     7     8 1   
    14     7    40 1   
    15     7    41 1   
    16     8     9 ar  
    17     8    13 ar  
    18     9    10 ar  
    19     9    42 1   
    20    10    11 ar  
    21    10    19 1   
    22    11    12 ar  
    23    11    14 1   
    24    12    13 ar  
    25    12    43 1   
    26    13    44 1   
    27    14    15 1   
    28    15    16 1   
    29    15    45 1   
    30    15    46 1   
    31    16    17 1   
    32    16    47 1   
    33    16    48 1   
    34    17    18 1   
    35    17    49 1   
    36    17    50 1   
    37    18    51 1   
    38    18    52 1   
    39    18    53 1   
    40    19    20 1   
    41    19    54 1   
    42    19    55 1   
    43    20    21 1   
    44    20    56 1   
    45    21    22 2   
    46    21    23 1   
    47    23    24 ar  
    48    23    28 ar  
    49    24    25 ar  
    50    24    30 1   
    51    25    26 ar  
    52    25    57 1   
    53    26    27 ar  
    54    26    29 1   
    55    27    28 ar  
    56    27    58 1   
    57    28    59 1   
    58    29    31 1   
    59    29    32 1   
    60    29    33 1   
@<TRIPOS>SUBSTRUCTURE
     1 K55         1 TEMP              0 ****  ****    0 ROOT
