@<TRIPOS>MOLECULE
K55
   59    60     1     0     0
SMALL
bcc


@<TRIPOS>ATOM
      1 O25          3.3920    -2.9610    -1.6750 o          1 K55      -0.842300
      2 O26          5.4100    -2.1260    -2.1070 o          1 K55      -0.842300
      3 C1           4.5400    -2.5990    -1.3450 c          1 K55       0.928600
      4 C2           4.9470    -2.7600     0.1310 c3         1 K55      -0.192700
      5 C3           6.0500    -3.8100     0.2760 c3         1 K55      -0.047400
      6 C4           5.6380    -5.2020    -0.1840 c3         1 K55      -0.077100
      7 C5           5.4180    -1.4200     0.7080 c3         1 K55      -0.007100
      8 C6           4.3750    -0.3430     0.6240 ca         1 K55      -0.069300
      9 C7           3.2560    -0.3660     1.4580 ca         1 K55      -0.076000
     10 C8           2.2600     0.5940     1.3940 ca         1 K55      -0.173300
     11 C9           2.3800     1.6380     0.4630 ca         1 K55       0.141100
     12 C10          3.4800     1.6760    -0.3850 ca         1 K55      -0.222000
     13 C11          4.4580     0.6880    -0.3000 ca         1 K55      -0.054000
     14 O33          1.3910     2.5510     0.4700 os         1 K55      -0.330900
     15 C21          1.4020     3.5950    -0.4870 c3         1 K55       0.145400
     16 C22          0.1730     4.4500    -0.2650 c3         1 K55      -0.085400
     17 C23          0.0710     5.5770    -1.2860 c3         1 K55      -0.073400
     18 C24         -1.1680     6.4340    -1.0760 c3         1 K55      -0.087100
     19 C12          1.0510     0.5060     2.2830 c3         1 K55       0.167300
     20 N27         -0.1380     0.2070     1.5090 ns         1 K55      -0.547900
     21 C13         -1.3010     0.8600     1.6280 c          1 K55       0.686700
     22 O28         -1.5150     1.7590     2.4240 o          1 K55      -0.598100
     23 C14         -2.3790     0.3670     0.7070 ca         1 K55      -0.153600
     24 C15         -3.2170     1.2550     0.0440 ca         1 K55       0.177900
     25 C16         -4.2470     0.8350    -0.7690 ca         1 K55      -0.143000
     26 C17         -4.4690    -0.5290    -0.9160 ca         1 K55      -0.163300
     27 C18         -3.6590    -1.4460    -0.2640 ca         1 K55      -0.101000
     28 C19         -2.6220    -0.9910     0.5370 ca         1 K55      -0.086000
     29 C20         -5.5790    -0.9750    -1.8180 c3         1 K55       0.720200
     30 F29         -3.0150     2.5690     0.1660 f          1 K55      -0.120900
     31 F30         -5.2860    -0.7380    -3.1040 f          1 K55      -0.234967
     32 F31         -5.8340    -2.2800    -1.7070 f          1 K55      -0.234967
     33 F32         -6.7190    -0.3240    -1.5580 f          1 K55      -0.234967
     34 H2           4.0750    -3.0970     0.7040 hc         1 K55       0.030700
     35 H3           6.9290    -3.4780    -0.2840 hc         1 K55       0.016200
     36 H3A          6.3590    -3.8580     1.3250 hc         1 K55       0.016200
     37 H4           4.7580    -5.5500     0.3590 hc         1 K55       0.022367
     38 H4A          5.3990    -5.2250    -1.2480 hc         1 K55       0.022367
     39 H4B          6.4370    -5.9260    -0.0130 hc         1 K55       0.022367
     40 H5           5.7080    -1.5670     1.7540 hc         1 K55       0.030200
     41 H5A          6.3170    -1.1030     0.1760 hc         1 K55       0.030200
     42 H7           3.1550    -1.1640     2.1860 ha         1 K55       0.124000
     43 H10          3.5980     2.4610    -1.1200 ha         1 K55       0.125000
     44 H11          5.3020     0.7280    -0.9780 ha         1 K55       0.148000
     45 H21          2.3110     4.2020    -0.3870 h1         1 K55       0.029200
     46 H21A         1.3980     3.1780    -1.5020 h1         1 K55       0.029200
     47 H22         -0.7190     3.8210    -0.3240 hc         1 K55       0.058200
     48 H22A         0.1970     4.8700     0.7450 hc         1 K55       0.058200
     49 H23          0.9650     6.2050    -1.2310 hc         1 K55       0.034700
     50 H23A         0.0570     5.1540    -2.2950 hc         1 K55       0.034700
     51 H24         -2.0780     5.8360    -1.1440 hc         1 K55       0.030367
     52 H24A        -1.1590     6.9060    -0.0910 hc         1 K55       0.030367
     53 H24B        -1.2360     7.2270    -1.8210 hc         1 K55       0.030367
     54 H12          1.2090    -0.2750     3.0310 h1         1 K55       0.054700
     55 H12A         0.8800     1.4370     2.8220 h1         1 K55       0.054700
     56 HN27        -0.0430    -0.4880     0.7850 hn         1 K55       0.328500
     57 H16         -4.8580     1.5740    -1.2710 ha         1 K55       0.160000
     58 H18         -3.8200    -2.5100    -0.3610 ha         1 K55       0.155000
     59 H19         -2.0070    -1.7160     1.0540 ha         1 K55       0.152000
@<TRIPOS>BOND
     1     1     3 1   
     2     2     3 1   
     3     3     4 1   
     4     4     5 1   
     5     4     7 1   
     6     4    34 1   
     7     5     6 1   
     8     5    35 1   
     9     5    36 1   
    10     6    37 1   
    11     6    38 1   
    12     6    39 1   
    13     7     8 1   
    14     7    40 1   
    15     7    41 1   
    16     8     9 ar  
    17     8    13 ar  
    18     9    10 ar  
    19     9    42 1   
    20    10    11 ar  
    21    10    19 1   
    22    11    12 ar  
    23    11    14 1   
    24    12    13 ar  
    25    12    43 1   
    26    13    44 1   
    27    14    15 1   
    28    15    16 1   
    29    15    45 1   
    30    15    46 1   
    31    16    17 1   
    32    16    47 1   
    33    16    48 1   
    34    17    18 1   
    35    17    49 1   
    36    17    50 1   
    37    18    51 1   
    38    18    52 1   
    39    18    53 1   
    40    19    20 1   
    41    19    54 1   
    42    19    55 1   
    43    20    21 1   
    44    20    56 1   
    45    21    22 2   
    46    21    23 1   
    47    23    24 ar  
    48    23    28 ar  
    49    24    25 ar  
    50    24    30 1   
    51    25    26 ar  
    52    25    57 1   
    53    26    27 ar  
    54    26    29 1   
    55    27    28 ar  
    56    27    58 1   
    57    28    59 1   
    58    29    31 1   
    59    29    32 1   
    60    29    33 1   
@<TRIPOS>SUBSTRUCTURE
     1 K55         1 TEMP              0 ****  ****    0 ROOT
