@<TRIPOS>MOLECULE
K56
   59    63     1     0     0
SMALL
No Charge or Current Charge


@<TRIPOS>ATOM
      1 O3          -2.7780    -2.7210    -0.2960 o          1 K56      -0.590000
      2 C18         -3.6570    -1.8760    -0.1860 c          1 K56       0.614000
      3 N5          -4.6630    -2.0140     0.7440 ns         1 K56      -0.146000
      4 C20         -5.7290    -1.1340     0.9820 ca         1 K56      -0.007000
      5 C22         -6.6840    -1.4050     1.9760 ca         1 K56      -0.159000
      6 C24         -7.7430    -0.5060     2.1930 ca         1 K56      -0.070000
      7 C23         -7.8410     0.6600     1.4140 ca         1 K56      -0.140000
      8 C21         -6.8830     0.9280     0.4200 ca         1 K56      -0.065000
      9 C19         -5.8220     0.0270     0.2020 ca         1 K56      -0.149300
     10 C17         -4.7760     0.3100    -0.8770 c6         1 K56       0.159300
     11 N4          -3.7020    -0.7130    -0.9940 n          1 K56      -0.409800
     12 C16         -2.6640    -0.4800    -2.0270 c3         1 K56       0.109000
     13 C14         -1.5760     0.5640    -1.6360 c6         1 K56      -0.086700
     14 C11         -0.5710     0.7900    -2.7980 c6         1 K56      -0.082400
     15 C7           0.5320     1.8050    -2.4100 c6         1 K56       0.214300
     16 C12         -0.7980     0.1610    -0.3530 c6         1 K56      -0.082400
     17 C8           0.3080     1.1900    -0.0150 c6         1 K56       0.214300
     18 N1           1.2300     1.3730    -1.1680 nh         1 K56      -0.779300
     19 C2           2.5540     1.7950    -0.9100 ca         1 K56       0.389900
     20 N2           2.8480     3.0650    -1.2490 nb         1 K56      -0.273000
     21 C9           4.0970     3.4890    -0.9820 ca         1 K56       0.151900
     22 N3           5.0840     2.7720    -0.4100 nb         1 K56      -0.197000
     23 C3           4.8100     1.4950    -0.0740 ca         1 K56       0.055000
     24 C1           3.5270     0.9480    -0.3160 ca         1 K56      -0.151000
     25 C5           5.8010     0.6930     0.5180 ca         1 K56      -0.191000
     26 C10          5.5350    -0.6500     0.8660 ca         1 K56       0.156100
     27 O2           6.4990    -1.4560     1.4510 os         1 K56      -0.316100
     28 C15          7.8260    -0.9870     1.7480 c3         1 K56       0.142900
     29 C6           4.2580    -1.2010     0.6110 ca         1 K56       0.111100
     30 C4           3.2590    -0.3990     0.0170 ca         1 K56      -0.153000
     31 O1           4.0230    -2.5240     0.9540 os         1 K56      -0.320100
     32 C13          2.7530    -3.1660     0.7390 c3         1 K56       0.142900
     33 H1          -4.6290    -2.8440     1.3210 hn         1 K56       0.165000
     34 H2          -6.6080    -2.3080     2.5790 ha         1 K56       0.119000
     35 H3          -8.4850    -0.7120     2.9620 ha         1 K56       0.116000
     36 H4          -8.6590     1.3570     1.5800 ha         1 K56       0.119000
     37 H5          -6.9640     1.8320    -0.1800 ha         1 K56       0.114000
     38 H6          -5.2870     0.3970    -1.8460 h1         1 K56       0.050200
     39 H7          -4.3160     1.2850    -0.6650 h1         1 K56       0.050200
     40 H8          -2.1690    -1.4250    -2.2850 h1         1 K56       0.064700
     41 H9          -3.1630    -0.1290    -2.9410 h1         1 K56       0.064700
     42 H10         -2.0990     1.5110    -1.4460 hc         1 K56       0.043700
     43 H11         -0.1010    -0.1630    -3.0770 hc         1 K56       0.054450
     44 H12         -1.1000     1.1510    -3.6910 hc         1 K56       0.054450
     45 H13          1.2460     1.8840    -3.2440 h1         1 K56       0.050200
     46 H14          0.0810     2.7990    -2.2660 h1         1 K56       0.050200
     47 H15         -1.4850     0.0810     0.5010 hc         1 K56       0.054450
     48 H16         -0.3450    -0.8310    -0.4840 hc         1 K56       0.054450
     49 H17         -0.1590     2.1510     0.2480 h1         1 K56       0.050200
     50 H18          0.8580     0.8430     0.8720 h1         1 K56       0.050200
     51 H19          4.3330     4.5170    -1.2520 h5         1 K56       0.043100
     52 H20          6.7770     1.1340     0.6980 ha         1 K56       0.141000
     53 H21          8.4180    -1.7880     2.2080 h1         1 K56       0.044700
     54 H22          8.3410    -0.6660     0.8330 h1         1 K56       0.044700
     55 H23          7.7930    -0.1440     2.4500 h1         1 K56       0.044700
     56 H24          2.2800    -0.8140    -0.1990 ha         1 K56       0.133000
     57 H25          1.9570    -2.6510     1.2910 h1         1 K56       0.044033
     58 H26          2.4950    -3.1740    -0.3280 h1         1 K56       0.044033
     59 H27          2.7900    -4.2060     1.0860 h1         1 K56       0.044033
@<TRIPOS>BOND
     1     1     2 2   
     2     2     3 1   
     3     2    11 1   
     4     3     4 1   
     5     3    33 1   
     6     4     5 ar  
     7     4     9 ar  
     8     5     6 ar  
     9     5    34 1   
    10     6     7 ar  
    11     6    35 1   
    12     7     8 ar  
    13     7    36 1   
    14     8     9 ar  
    15     8    37 1   
    16     9    10 1   
    17    10    11 1   
    18    10    38 1   
    19    10    39 1   
    20    11    12 1   
    21    12    13 1   
    22    12    40 1   
    23    12    41 1   
    24    13    14 1   
    25    13    16 1   
    26    13    42 1   
    27    14    15 1   
    28    14    43 1   
    29    14    44 1   
    30    15    18 1   
    31    15    45 1   
    32    15    46 1   
    33    16    17 1   
    34    16    47 1   
    35    16    48 1   
    36    17    18 1   
    37    17    49 1   
    38    17    50 1   
    39    18    19 1   
    40    19    20 ar  
    41    19    24 ar  
    42    20    21 ar  
    43    21    22 ar  
    44    21    51 1   
    45    22    23 ar  
    46    23    24 ar  
    47    23    25 ar  
    48    24    30 ar  
    49    25    26 ar  
    50    25    52 1   
    51    26    27 1   
    52    26    29 ar  
    53    27    28 1   
    54    28    53 1   
    55    28    54 1   
    56    28    55 1   
    57    29    30 ar  
    58    29    31 1   
    59    30    56 1   
    60    31    32 1   
    61    32    57 1   
    62    32    58 1   
    63    32    59 1   
@<TRIPOS>SUBSTRUCTURE
     1 K56         1 TEMP              0 ****  ****    0 ROOT
