@<TRIPOS>MOLECULE
K56
   59    63     1     0     0
SMALL
bcc


@<TRIPOS>ATOM
      1 O3          -2.5720    -2.5660    -0.4650 o          1 K56      -0.665500
      2 C18         -3.4160    -1.7280    -0.1780 c          1 K56       0.823500
      3 N5          -4.3070    -1.9580     0.8470 ns         1 K56      -0.472100
      4 C20         -5.5030    -1.2680     0.9890 ca         1 K56       0.085600
      5 C22         -6.5760    -1.8030     1.6940 ca         1 K56      -0.177000
      6 C24         -7.7530    -1.0770     1.8010 ca         1 K56      -0.088000
      7 C23         -7.8710     0.1690     1.1970 ca         1 K56      -0.158000
      8 C21         -6.7930     0.6930     0.4940 ca         1 K56      -0.083000
      9 C19         -5.6040    -0.0130     0.3970 ca         1 K56      -0.149300
     10 C17         -4.3780     0.5260    -0.2700 c6         1 K56       0.159300
     11 N4          -3.5700    -0.5470    -0.8260 n          1 K56      -0.476800
     12 C16         -2.6780    -0.1870    -1.9090 c3         1 K56       0.109000
     13 C14         -1.5680     0.7880    -1.5190 c6         1 K56      -0.086700
     14 C11         -0.7130     1.1010    -2.7440 c6         1 K56      -0.082400
     15 C7           0.4590     2.0170    -2.4190 c6         1 K56       0.214300
     16 C12         -0.6900     0.2760    -0.3810 c6         1 K56      -0.082400
     17 C8           0.4620     1.2340    -0.1330 c6         1 K56       0.214300
     18 N1           1.2470     1.4250    -1.3510 nh         1 K56      -0.779300
     19 C2           2.5840     1.6900    -1.2770 ca         1 K56       0.718200
     20 N2           3.0680     2.7150    -1.9540 nb         1 K56      -0.799000
     21 C9           4.3670     3.0010    -1.8130 ca         1 K56       0.677900
     22 N3           5.2360     2.4000    -1.0490 nb         1 K56      -0.723000
     23 C3           4.7900     1.2930    -0.4030 ca         1 K56       0.448600
     24 C1           3.4620     0.8500    -0.5230 ca         1 K56      -0.281600
     25 C5           5.7020     0.5450     0.3750 ca         1 K56      -0.274300
     26 C10          5.3160    -0.6310     0.9630 ca         1 K56       0.156100
     27 O2           6.0950    -1.4080     1.7180 os         1 K56      -0.292900
     28 C15          7.4230    -0.9870     1.9670 c3         1 K56       0.119700
     29 C6           3.9890    -1.1320     0.7580 ca         1 K56       0.111100
     30 C4           3.0950    -0.4000     0.0280 ca         1 K56      -0.171000
     31 O1           3.7460    -2.3250     1.3170 os         1 K56      -0.296900
     32 C13          2.4530    -2.8780     1.1690 c3         1 K56       0.119700
     33 H1          -4.2440    -2.8760     1.2610 hn         1 K56       0.331500
     34 H2          -6.4900    -2.7810     2.1530 ha         1 K56       0.137000
     35 H3          -8.5850    -1.4940     2.3530 ha         1 K56       0.134000
     36 H4          -8.7930     0.7280     1.2720 ha         1 K56       0.137000
     37 H5          -6.8750     1.6660     0.0250 ha         1 K56       0.132000
     38 H6          -4.6520     1.1960    -1.0870 h1         1 K56       0.050200
     39 H7          -3.7950     1.1240     0.4430 h1         1 K56       0.050200
     40 H8          -2.2430    -1.0970    -2.3170 h1         1 K56       0.064700
     41 H9          -3.2840     0.2660    -2.7010 h1         1 K56       0.064700
     42 H10         -2.0240     1.7310    -1.1860 hc         1 K56       0.043700
     43 H11         -0.3240     0.1700    -3.1700 hc         1 K56       0.054450
     44 H12         -1.3230     1.5750    -3.5180 hc         1 K56       0.054450
     45 H13          1.0840     2.1470    -3.3000 h1         1 K56       0.050200
     46 H14          0.0950     3.0120    -2.1300 h1         1 K56       0.050200
     47 H15         -1.2680     0.1820     0.5410 hc         1 K56       0.054450
     48 H16         -0.3010    -0.7190    -0.6200 hc         1 K56       0.054450
     49 H17          0.0650     2.2090     0.1830 h1         1 K56       0.050200
     50 H18          1.0930     0.8820     0.6800 h1         1 K56       0.050200
     51 H19          4.7230     3.8520    -2.3850 h5         1 K56       0.043100
     52 H20          6.7090     0.9260     0.4730 ha         1 K56       0.159000
     53 H21          7.8660    -1.7350     2.6180 h1         1 K56       0.044700
     54 H22          8.0070    -0.9280     1.0450 h1         1 K56       0.044700
     55 H23          7.4520    -0.0160     2.4680 h1         1 K56       0.044700
     56 H24          2.1080    -0.7930    -0.1720 ha         1 K56       0.151000
     57 H25          1.6850    -2.2320     1.6050 h1         1 K56       0.044033
     58 H26          2.2070    -3.0640     0.1210 h1         1 K56       0.044033
     59 H27          2.4590    -3.8250     1.7020 h1         1 K56       0.044033
@<TRIPOS>BOND
     1     1     2 2   
     2     2     3 1   
     3     2    11 1   
     4     3     4 1   
     5     3    33 1   
     6     4     5 ar  
     7     4     9 ar  
     8     5     6 ar  
     9     5    34 1   
    10     6     7 ar  
    11     6    35 1   
    12     7     8 ar  
    13     7    36 1   
    14     8     9 ar  
    15     8    37 1   
    16     9    10 1   
    17    10    11 1   
    18    10    38 1   
    19    10    39 1   
    20    11    12 1   
    21    12    13 1   
    22    12    40 1   
    23    12    41 1   
    24    13    14 1   
    25    13    16 1   
    26    13    42 1   
    27    14    15 1   
    28    14    43 1   
    29    14    44 1   
    30    15    18 1   
    31    15    45 1   
    32    15    46 1   
    33    16    17 1   
    34    16    47 1   
    35    16    48 1   
    36    17    18 1   
    37    17    49 1   
    38    17    50 1   
    39    18    19 1   
    40    19    20 ar  
    41    19    24 ar  
    42    20    21 ar  
    43    21    22 ar  
    44    21    51 1   
    45    22    23 ar  
    46    23    24 ar  
    47    23    25 ar  
    48    24    30 ar  
    49    25    26 ar  
    50    25    52 1   
    51    26    27 1   
    52    26    29 ar  
    53    27    28 1   
    54    28    53 1   
    55    28    54 1   
    56    28    55 1   
    57    29    30 ar  
    58    29    31 1   
    59    30    56 1   
    60    31    32 1   
    61    32    57 1   
    62    32    58 1   
    63    32    59 1   
@<TRIPOS>SUBSTRUCTURE
     1 K56         1 TEMP              0 ****  ****    0 ROOT
