@<TRIPOS>MOLECULE
K57
   74    76     1     0     0
SMALL
No Charge or Current Charge


@<TRIPOS>ATOM
      1 C1          -7.2400    -1.2670     0.6030 ca         1 K57      -0.191000
      2 C2          -6.2530    -1.8630     1.3960 ca         1 K57      -0.080000
      3 C3          -4.8990    -1.6400     1.1130 ca         1 K57      -0.125000
      4 C4          -4.5030    -0.8140     0.0310 ca         1 K57      -0.117600
      5 C5          -5.5120    -0.1910    -0.7630 ca         1 K57      -0.053300
      6 C6          -6.8780    -0.4380    -0.4680 ca         1 K57       0.129100
      7 C7          -5.1400     0.7690    -1.9030 c3         1 K57      -0.044800
      8 C8          -3.0220    -0.6260    -0.2480 c          1 K57       0.614700
      9 O33         -7.8760     0.1250    -1.2140 oh         1 K57      -0.532100
     10 O34         -2.5590    -0.5000    -1.3740 o          1 K57      -0.598100
     11 C13          1.5490    -1.3520     1.4960 c          1 K57       0.579100
     12 N9          -2.2030    -0.6780     0.8600 ns         1 K57      -0.492900
     13 O26          2.2150    -0.9160     2.4300 o          1 K57      -0.615100
     14 C12          0.0030    -1.5090     1.6480 c3         1 K57       0.088300
     15 C19         -1.2240     2.0990     0.5460 ca         1 K57      -0.084300
     16 C11         -0.4870     1.0440     1.3650 c3         1 K57      -0.047100
     17 C22         -2.6060     4.0130    -0.9960 ca         1 K57      -0.112000
     18 C10         -0.7600    -0.4000     0.8620 c3         1 K57       0.082700
     19 O25         -0.4020    -1.5070     3.0440 oh         1 K57      -0.650000
     20 C20         -2.4460     2.6320     1.0020 ca         1 K57      -0.104000
     21 C24         -0.6980     2.5310    -0.6870 ca         1 K57      -0.104000
     22 C21         -3.1350     3.5860     0.2330 ca         1 K57      -0.112000
     23 C23         -1.3870     3.4860    -1.4550 ca         1 K57      -0.112000
     24 C29          3.7760     0.2460    -0.0980 c          1 K57       0.600100
     25 N14          2.1740    -1.6840     0.2730 n          1 K57      -0.387800
     26 O32          2.9290     1.0450    -0.4770 o          1 K57      -0.594100
     27 C15          3.6080    -1.3040     0.0220 c5         1 K57       0.023700
     28 C16          4.0350    -2.0310    -1.3170 c5         1 K57       0.092000
     29 C18          1.5190    -2.4920    -0.7810 c5         1 K57       0.231000
     30 C27          4.5530    -3.4690    -1.0510 c3         1 K57      -0.081100
     31 C28          5.0970    -1.3000    -2.1850 c3         1 K57      -0.081100
     32 S17          2.4830    -2.1330    -2.3090 ss         1 K57      -0.383000
     33 C31          5.6110     1.9580     0.3890 c3         1 K57       0.139400
     34 C35          4.7870     2.8580     1.3430 c3         1 K57      -0.104767
     35 C67          7.0510     1.8250     0.9350 c3         1 K57      -0.104767
     36 C71          5.6630     2.5740    -1.0320 c3         1 K57      -0.104767
     37 H36         -8.2870    -1.4530     0.8290 ha         1 K57       0.113000
     38 H37         -6.5360    -2.5090     2.2250 ha         1 K57       0.116000
     39 H38         -4.1570    -2.1430     1.7300 ha         1 K57       0.121000
     40 H32         -4.8210     0.2160    -2.7930 hc         1 K57       0.054033
     41 H33         -5.9690     1.4190    -2.2020 hc         1 K57       0.054033
     42 H34         -4.3250     1.4400    -1.6090 hc         1 K57       0.054033
     43 H35         -8.7380    -0.1700    -0.8510 ho         1 K57       0.463000
     44 H31         -2.6580    -0.8080     1.7540 hn         1 K57       0.325500
     45 H22         -0.2590    -2.4780     1.2030 h1         1 K57       0.088700
     46 H24         -0.7730     1.1240     2.4200 hc         1 K57       0.062200
     47 H25          0.5910     1.2460     1.3280 hc         1 K57       0.062200
     48 H28         -3.1390     4.7510    -1.5920 ha         1 K57       0.110000
     49 H23         -0.4070    -0.4330    -0.1780 h1         1 K57       0.102700
     50 H21          0.3750    -1.1730     3.5520 ho         1 K57       0.469000
     51 H30         -2.8680     2.3020     1.9500 ha         1 K57       0.120000
     52 H26          0.2420     2.1240    -1.0520 ha         1 K57       0.120000
     53 H29         -4.0800     3.9920     0.5890 ha         1 K57       0.111500
     54 H27         -0.9770     3.8150    -2.4080 ha         1 K57       0.111500
     55 H11          4.2380    -1.6400     0.8550 h1         1 K57       0.091700
     56 H19          1.6120    -3.5480    -0.4960 h2         1 K57       0.084700
     57 H20          0.4780    -2.1780    -0.9080 h2         1 K57       0.084700
     58 H13          3.8500    -4.0550    -0.4490 hc         1 K57       0.049367
     59 H14          4.7170    -4.0150    -1.9880 hc         1 K57       0.049367
     60 H15          5.5060    -3.4500    -0.5080 hc         1 K57       0.049367
     61 H16          6.0380    -1.1620    -1.6390 hc         1 K57       0.049367
     62 H17          5.3270    -1.8720    -3.0920 hc         1 K57       0.049367
     63 H18          4.7490    -0.3140    -2.5160 hc         1 K57       0.049367
     64 H10          5.6380    -0.1520     0.6510 hn         1 K57       0.311500
     65 H7           4.7030     2.3980     2.3360 hc         1 K57       0.045589
     66 H8           5.2660     3.8370     1.4630 hc         1 K57       0.045589
     67 H9           3.7740     3.0320     0.9630 hc         1 K57       0.045589
     68 H1           7.6600     1.1850     0.2840 hc         1 K57       0.045589
     69 H2           7.5390     2.8050     0.9970 hc         1 K57       0.045589
     70 H3           7.0500     1.3840     1.9400 hc         1 K57       0.045589
     71 H4           4.6600     2.7370    -1.4400 hc         1 K57       0.045589
     72 H5           6.1730     3.5450    -1.0140 hc         1 K57       0.045589
     73 H6           6.2090     1.9180    -1.7210 hc         1 K57       0.045589
     74 N30          5.0430     0.6050     0.3390 ns         1 K57      -0.499900
@<TRIPOS>BOND
     1     1     2 ar  
     2     1     6 ar  
     3     1    37 1   
     4     2     3 ar  
     5     2    38 1   
     6     3     4 ar  
     7     3    39 1   
     8     4     5 ar  
     9     4     8 1   
    10     5     6 ar  
    11     5     7 1   
    12     6     9 1   
    13     7    40 1   
    14     7    41 1   
    15     7    42 1   
    16     8    10 2   
    17     8    12 1   
    18     9    43 1   
    19    11    13 2   
    20    11    14 1   
    21    11    25 1   
    22    12    18 1   
    23    12    44 1   
    24    14    18 1   
    25    14    19 1   
    26    14    45 1   
    27    15    16 1   
    28    15    20 ar  
    29    15    21 ar  
    30    16    18 1   
    31    16    46 1   
    32    16    47 1   
    33    17    22 ar  
    34    17    23 ar  
    35    17    48 1   
    36    18    49 1   
    37    19    50 1   
    38    20    22 ar  
    39    20    51 1   
    40    21    23 ar  
    41    21    52 1   
    42    22    53 1   
    43    23    54 1   
    44    24    26 2   
    45    24    27 1   
    46    24    74 1   
    47    25    27 1   
    48    25    29 1   
    49    27    28 1   
    50    27    55 1   
    51    28    30 1   
    52    28    31 1   
    53    28    32 1   
    54    29    32 1   
    55    29    56 1   
    56    29    57 1   
    57    30    58 1   
    58    30    59 1   
    59    30    60 1   
    60    31    61 1   
    61    31    62 1   
    62    31    63 1   
    63    33    34 1   
    64    33    35 1   
    65    33    36 1   
    66    33    74 1   
    67    34    65 1   
    68    34    66 1   
    69    34    67 1   
    70    35    68 1   
    71    35    69 1   
    72    35    70 1   
    73    36    71 1   
    74    36    72 1   
    75    36    73 1   
    76    64    74 1   
@<TRIPOS>SUBSTRUCTURE
     1 K57         1 TEMP              0 ****  ****    0 ROOT
