@<TRIPOS>MOLECULE
K57
   74    76     1     0     0
SMALL
bcc


@<TRIPOS>ATOM
      1 C1          -6.8780    -1.2050    -0.0590 ca         1 K57      -0.209000
      2 C2          -6.0750    -2.0920     0.6370 ca         1 K57      -0.098000
      3 C3          -4.6970    -1.9610     0.5920 ca         1 K57      -0.143000
      4 C4          -4.1310    -0.9360    -0.1620 ca         1 K57      -0.117600
      5 C5          -4.9140    -0.0160    -0.8610 ca         1 K57      -0.053300
      6 C6          -6.3040    -0.1770    -0.8030 ca         1 K57       0.129100
      7 C7          -4.3110     1.1200    -1.6390 c3         1 K57      -0.044800
      8 C8          -2.6400    -0.8580    -0.2610 c          1 K57       0.681700
      9 O33         -7.0600     0.7000    -1.4950 oh         1 K57      -0.493100
     10 O34         -2.0580    -0.9880    -1.3280 o          1 K57      -0.598100
     11 C13          1.5980    -1.4710     1.5530 c          1 K57       0.646100
     12 N9          -2.0170    -0.6430     0.9100 ns         1 K57      -0.559900
     13 O26          2.2430    -0.9550     2.4560 o          1 K57      -0.615100
     14 C12          0.0890    -1.6170     1.7060 c3         1 K57       0.065100
     15 C19         -1.0240     2.0600     1.0360 ca         1 K57      -0.084300
     16 C11         -0.3370     0.9210     1.7360 c3         1 K57      -0.047100
     17 C22         -2.3200     4.1430    -0.3120 ca         1 K57      -0.130000
     18 C10         -0.5970    -0.4110     1.0200 c3         1 K57       0.082700
     19 O25         -0.2540    -1.7160     3.0550 oh         1 K57      -0.587800
     20 C20         -2.2260     2.5770     1.5120 ca         1 K57      -0.122000
     21 C24         -0.4810     2.6010    -0.1270 ca         1 K57      -0.122000
     22 C21         -2.8700     3.6120     0.8460 ca         1 K57      -0.130000
     23 C23         -1.1220     3.6340    -0.7980 ca         1 K57      -0.130000
     24 C29          3.5000     0.0640    -0.1950 c          1 K57       0.667100
     25 N14          2.1620    -1.8580     0.3960 n          1 K57      -0.454800
     26 O32          2.5090     0.5790    -0.6860 o          1 K57      -0.594100
     27 C15          3.5200    -1.4410     0.1120 c5         1 K57       0.023700
     28 C16          4.0110    -2.3210    -1.0550 c5         1 K57       0.044100
     29 C18          1.4480    -2.5250    -0.6870 c5         1 K57       0.183100
     30 C27          4.3920    -3.7030    -0.5300 c3         1 K57      -0.081100
     31 C28          5.1620    -1.7280    -1.8540 c3         1 K57      -0.081100
     32 S17          2.5330    -2.4330    -2.1270 ss         1 K57      -0.287200
     33 C31          4.9120     2.1330    -0.1130 c3         1 K57       0.139400
     34 C35          3.9840     3.0060     0.7320 c3         1 K57      -0.104767
     35 C67          6.3570     2.3530     0.3300 c3         1 K57      -0.104767
     36 C71          4.7820     2.4800    -1.5960 c3         1 K57      -0.104767
     37 H36         -7.9560    -1.3100    -0.0270 ha         1 K57       0.131000
     38 H37         -6.5290    -2.8890     1.2110 ha         1 K57       0.134000
     39 H38         -4.0650    -2.6600     1.1250 ha         1 K57       0.139000
     40 H32         -4.1220     0.8390    -2.6760 hc         1 K57       0.054033
     41 H33         -4.9670     1.9880    -1.6490 hc         1 K57       0.054033
     42 H34         -3.3650     1.4450    -1.2080 hc         1 K57       0.054033
     43 H35         -7.9960     0.5050    -1.3700 ho         1 K57       0.424000
     44 H31         -2.5840    -0.5200     1.7350 hn         1 K57       0.325500
     45 H22         -0.2620    -2.5280     1.2120 h1         1 K57       0.088700
     46 H24         -0.6770     0.8590     2.7720 hc         1 K57       0.062200
     47 H25          0.7380     1.1010     1.7610 hc         1 K57       0.062200
     48 H28         -2.8200     4.9490    -0.8340 ha         1 K57       0.128000
     49 H23         -0.2140    -0.3170     0.0040 h1         1 K57       0.102700
     50 H21          0.4050    -1.2220     3.5610 ho         1 K57       0.430000
     51 H30         -2.6640     2.1710     2.4170 ha         1 K57       0.138000
     52 H26          0.4570     2.2110    -0.5070 ha         1 K57       0.138000
     53 H29         -3.8040     4.0030     1.2300 ha         1 K57       0.129500
     54 H27         -0.6830     4.0430    -1.6990 ha         1 K57       0.129500
     55 H11          4.1590    -1.6360     0.9780 h1         1 K57       0.091700
     56 H19          1.2370    -3.5620    -0.4220 h2         1 K57       0.084700
     57 H20          0.5100    -2.0350    -0.9460 h2         1 K57       0.084700
     58 H13          3.5830    -4.1740     0.0280 hc         1 K57       0.049367
     59 H14          4.6590    -4.3610    -1.3560 hc         1 K57       0.049367
     60 H15          5.2550    -3.6280     0.1350 hc         1 K57       0.049367
     61 H16          6.0390    -1.6040    -1.2180 hc         1 K57       0.049367
     62 H17          5.4400    -2.4040    -2.6630 hc         1 K57       0.049367
     63 H18          4.9160    -0.7630    -2.2950 hc         1 K57       0.049367
     64 H10          5.3520     0.1780     0.5750 hn         1 K57       0.311500
     65 H7           4.0940     2.7760     1.7930 hc         1 K57       0.045589
     66 H8           4.2300     4.0600     0.5890 hc         1 K57       0.045589
     67 H9           2.9390     2.8670     0.4580 hc         1 K57       0.045589
     68 H1           7.0490     1.7390    -0.2510 hc         1 K57       0.045589
     69 H2           6.6380     3.3970     0.1890 hc         1 K57       0.045589
     70 H3           6.4900     2.1120     1.3860 hc         1 K57       0.045589
     71 H4           3.7610     2.3630    -1.9540 hc         1 K57       0.045589
     72 H5           5.0770     3.5180    -1.7570 hc         1 K57       0.045589
     73 H6           5.4340     1.8480    -2.2010 hc         1 K57       0.045589
     74 N30          4.6280     0.7100     0.1180 ns         1 K57      -0.566900
@<TRIPOS>BOND
     1     1     2 ar  
     2     1     6 ar  
     3     1    37 1   
     4     2     3 ar  
     5     2    38 1   
     6     3     4 ar  
     7     3    39 1   
     8     4     5 ar  
     9     4     8 1   
    10     5     6 ar  
    11     5     7 1   
    12     6     9 1   
    13     7    40 1   
    14     7    41 1   
    15     7    42 1   
    16     8    10 2   
    17     8    12 1   
    18     9    43 1   
    19    11    13 2   
    20    11    14 1   
    21    11    25 1   
    22    12    18 1   
    23    12    44 1   
    24    14    18 1   
    25    14    19 1   
    26    14    45 1   
    27    15    16 1   
    28    15    20 ar  
    29    15    21 ar  
    30    16    18 1   
    31    16    46 1   
    32    16    47 1   
    33    17    22 ar  
    34    17    23 ar  
    35    17    48 1   
    36    18    49 1   
    37    19    50 1   
    38    20    22 ar  
    39    20    51 1   
    40    21    23 ar  
    41    21    52 1   
    42    22    53 1   
    43    23    54 1   
    44    24    26 2   
    45    24    27 1   
    46    24    74 1   
    47    25    27 1   
    48    25    29 1   
    49    27    28 1   
    50    27    55 1   
    51    28    30 1   
    52    28    31 1   
    53    28    32 1   
    54    29    32 1   
    55    29    56 1   
    56    29    57 1   
    57    30    58 1   
    58    30    59 1   
    59    30    60 1   
    60    31    61 1   
    61    31    62 1   
    62    31    63 1   
    63    33    34 1   
    64    33    35 1   
    65    33    36 1   
    66    33    74 1   
    67    34    65 1   
    68    34    66 1   
    69    34    67 1   
    70    35    68 1   
    71    35    69 1   
    72    35    70 1   
    73    36    71 1   
    74    36    72 1   
    75    36    73 1   
    76    64    74 1   
@<TRIPOS>SUBSTRUCTURE
     1 K57         1 TEMP              0 ****  ****    0 ROOT
