@<TRIPOS>MOLECULE
K58
   44    46     1     0     0
SMALL
bcc


@<TRIPOS>ATOM
      1 C5          -3.4740     0.0160     0.1680 cc         1 K58       0.358800
      2 C6          -0.5230     2.1490    -0.2490 c          1 K58       0.698700
      3 C7          -4.3870    -1.1240     0.0540 ca         1 K58      -0.104500
      4 C10         -2.9240     3.2670     1.3300 c3         1 K58       0.046600
      5 C13         -6.5720    -2.1080     0.3690 ca         1 K58      -0.135000
      6 C15         -6.1280    -3.3040    -0.1830 ca         1 K58      -0.131000
      7 C17          2.9130     0.9110    -0.4330 ca         1 K58      -0.149300
      8 C20          3.9900    -1.2460    -0.5910 ca         1 K58      -0.107500
      9 C21          4.9200    -0.8880     0.3820 ca         1 K58      -0.119600
     10 C22          4.8290     0.3830     0.9410 ca         1 K58      -0.107500
     11 C24          6.0090    -1.8590     0.8190 c          1 K58       0.921200
     12 C14         -4.8130    -3.4090    -0.6140 ca         1 K58      -0.135000
     13 C11         -5.7120    -1.0280     0.4860 ca         1 K58      -0.110000
     14 C12         -3.9500    -2.3300    -0.4960 ca         1 K58      -0.110000
     15 C19          3.0040    -0.3600    -0.9980 ca         1 K58      -0.148000
     16 C23          3.8370     1.2690     0.5430 ca         1 K58      -0.148000
     17 C3          -2.1690     0.1470    -0.3290 cc         1 K58      -0.271300
     18 C1          -1.7760     1.4160     0.0420 cd         1 K58      -0.158900
     19 C18          1.9030     2.1780    -2.3650 c3         1 K58      -0.100100
     20 C16          1.8430     1.8830    -0.8680 c3         1 K58       0.170000
     21 N4          -3.8350     1.1260     0.8000 nd         1 K58      -0.525800
     22 N2          -2.8150     1.9590     0.7150 na         1 K58       0.156400
     23 N9           0.5390     1.3620    -0.4770 ns         1 K58      -0.545900
     24 O26          6.8150    -1.4460     1.6750 o          1 K58      -0.822300
     25 O25          6.0000    -2.9850     0.2840 o          1 K58      -0.822300
     26 O8          -0.4840     3.3710    -0.2840 o          1 K58      -0.627100
     27 H1          -3.0230     4.0450     0.5780 h1         1 K58       0.063033
     28 H2          -3.8090     3.2550     1.9570 h1         1 K58       0.063033
     29 H3          -2.0540     3.4760     1.9460 h1         1 K58       0.063033
     30 H4          -7.5960    -2.0150     0.7080 ha         1 K58       0.126000
     31 H5          -6.8030    -4.1450    -0.2760 ha         1 K58       0.124000
     32 H6           4.0420    -2.2300    -1.0390 ha         1 K58       0.148000
     33 H7           5.5410     0.6840     1.6980 ha         1 K58       0.148000
     34 H8          -4.4540    -4.3360    -1.0430 ha         1 K58       0.126000
     35 H9          -6.0720    -0.1010     0.9120 ha         1 K58       0.139000
     36 H10         -2.9260    -2.4340    -0.8320 ha         1 K58       0.139000
     37 H11          2.3050    -0.6690    -1.7680 ha         1 K58       0.105000
     38 H12          3.7830     2.2530     0.9940 ha         1 K58       0.105000
     39 H13         -1.6070    -0.5670    -0.9080 ha         1 K58       0.166000
     40 H14          2.8810     2.5790    -2.6300 hc         1 K58       0.038367
     41 H15          1.7340     1.2780    -2.9550 hc         1 K58       0.038367
     42 H16          1.1490     2.9140    -2.6430 hc         1 K58       0.038367
     43 H17          1.9960     2.8190    -0.3280 h1         1 K58       0.065700
     44 H18          0.4410     0.3650    -0.3690 hn         1 K58       0.328500
@<TRIPOS>BOND
     1     1     3 1   
     2     1    17 1   
     3     1    21 2   
     4     2    18 1   
     5     2    23 1   
     6     2    26 2   
     7     3    13 ar  
     8     3    14 ar  
     9     4    22 1   
    10     4    27 1   
    11     4    28 1   
    12     4    29 1   
    13     5     6 ar  
    14     5    13 ar  
    15     5    30 1   
    16     6    12 ar  
    17     6    31 1   
    18     7    15 ar  
    19     7    16 ar  
    20     7    20 1   
    21     8     9 ar  
    22     8    15 ar  
    23     8    32 1   
    24     9    10 ar  
    25     9    11 1   
    26    10    16 ar  
    27    10    33 1   
    28    11    24 1   
    29    11    25 1   
    30    12    14 ar  
    31    12    34 1   
    32    13    35 1   
    33    14    36 1   
    34    15    37 1   
    35    16    38 1   
    36    17    18 2   
    37    17    39 1   
    38    18    22 1   
    39    19    20 1   
    40    19    40 1   
    41    19    41 1   
    42    19    42 1   
    43    20    23 1   
    44    20    43 1   
    45    21    22 1   
    46    23    44 1   
@<TRIPOS>SUBSTRUCTURE
     1 K58         1 TEMP              0 ****  ****    0 ROOT
