@<TRIPOS>MOLECULE
K58
   44    46     1     0     0
SMALL
No Charge or Current Charge


@<TRIPOS>ATOM
      1 C5          -3.4510     0.1860     0.2190 cc         1 K58       0.293500
      2 C6          -0.5480     2.4500    -0.0970 c          1 K58       0.631700
      3 C7          -4.1320    -1.1240     0.2100 ca         1 K58      -0.104500
      4 C10         -3.4210     3.7020     0.5870 c3         1 K58       0.075900
      5 C13         -6.1820    -2.4530     0.4600 ca         1 K58      -0.117000
      6 C15         -5.4660    -3.6300     0.1980 ca         1 K58      -0.113000
      7 C17          2.8230     0.8610    -0.3830 ca         1 K58      -0.149300
      8 C20          3.6530    -1.3590    -0.9830 ca         1 K58      -0.089500
      9 C21          4.5850    -1.3270     0.0800 ca         1 K58      -0.119600
     10 C22          4.6160    -0.1810     0.9090 ca         1 K58      -0.089500
     11 C24          5.5280    -2.4950     0.3270 c          1 K58       0.710600
     12 C14         -4.0880    -3.5630    -0.0590 ca         1 K58      -0.117000
     13 C11         -5.5220    -1.2120     0.4660 ca         1 K58      -0.092000
     14 C12         -3.4260    -2.3230    -0.0530 ca         1 K58      -0.092000
     15 C19          2.7830    -0.2790    -1.2110 ca         1 K58      -0.130000
     16 C23          3.7450     0.8980     0.6800 ca         1 K58      -0.130000
     17 C3          -2.0790     0.3960    -0.0220 cc         1 K58      -0.188000
     18 C1          -1.8440     1.7410     0.0770 cd         1 K58      -0.209600
     19 C18          2.0470     2.6540    -2.0220 c3         1 K58      -0.100100
     20 C16          1.8770     2.0370    -0.6170 c3         1 K58       0.170000
     21 N4          -4.0910     1.3160     0.4620 nd         1 K58      -0.525800
     22 N2          -3.0980     2.2830     0.3750 na         1 K58       0.177800
     23 N9           0.5020     1.6120    -0.3840 ns         1 K58      -0.478900
     24 O26          6.3170    -2.4250     1.2600 o          1 K58      -0.717000
     25 O25          5.4670    -3.4660    -0.4150 o          1 K58      -0.717000
     26 O8          -0.4140     3.6600     0.0070 o          1 K58      -0.627100
     27 H1          -3.1730     4.2720    -0.3160 h1         1 K58       0.063033
     28 H2          -4.4900     3.8160     0.8040 h1         1 K58       0.063033
     29 H3          -2.8390     4.0860     1.4330 h1         1 K58       0.063033
     30 H4          -7.2500    -2.5010     0.6600 ha         1 K58       0.108000
     31 H5          -5.9760    -4.5910     0.1930 ha         1 K58       0.106000
     32 H6           3.6000    -2.2250    -1.6400 ha         1 K58       0.130000
     33 H7           5.3190    -0.1230     1.7380 ha         1 K58       0.130000
     34 H8          -3.5300    -4.4740    -0.2630 ha         1 K58       0.108000
     35 H9          -6.1030    -0.3160     0.6730 ha         1 K58       0.121000
     36 H10         -2.3590    -2.3110    -0.2560 ha         1 K58       0.121000
     37 H11          2.0750    -0.3330    -2.0340 ha         1 K58       0.087000
     38 H12          3.7890     1.7650     1.3340 ha         1 K58       0.087000
     39 H13         -1.3580    -0.3810    -0.2430 ha         1 K58       0.148000
     40 H14          3.0900     2.9480    -2.1840 hc         1 K58       0.038367
     41 H15          1.7640     1.9410    -2.8050 hc         1 K58       0.038367
     42 H16          1.4220     3.5470    -2.1320 hc         1 K58       0.038367
     43 H17          2.1130     2.8190     0.1180 h1         1 K58       0.065700
     44 H18          0.2960     0.6250    -0.4300 hn         1 K58       0.328500
@<TRIPOS>BOND
     1     1     3 1   
     2     1    17 1   
     3     1    21 2   
     4     2    18 1   
     5     2    23 1   
     6     2    26 2   
     7     3    13 ar  
     8     3    14 ar  
     9     4    22 1   
    10     4    27 1   
    11     4    28 1   
    12     4    29 1   
    13     5     6 ar  
    14     5    13 ar  
    15     5    30 1   
    16     6    12 ar  
    17     6    31 1   
    18     7    15 ar  
    19     7    16 ar  
    20     7    20 1   
    21     8     9 ar  
    22     8    15 ar  
    23     8    32 1   
    24     9    10 ar  
    25     9    11 1   
    26    10    16 ar  
    27    10    33 1   
    28    11    24 1   
    29    11    25 1   
    30    12    14 ar  
    31    12    34 1   
    32    13    35 1   
    33    14    36 1   
    34    15    37 1   
    35    16    38 1   
    36    17    18 2   
    37    17    39 1   
    38    18    22 1   
    39    19    20 1   
    40    19    40 1   
    41    19    41 1   
    42    19    42 1   
    43    20    23 1   
    44    20    43 1   
    45    21    22 1   
    46    23    44 1   
@<TRIPOS>SUBSTRUCTURE
     1 K58         1 TEMP              0 ****  ****    0 ROOT
