@<TRIPOS>MOLECULE
K5A
   66    70     1     0     0
SMALL
No Charge or Current Charge


@<TRIPOS>ATOM
      1 C01          4.6420    -1.8290    -2.8100 c3         1 K5A      -0.048800
      2 C02          4.1510    -2.4150    -1.4920 ca         1 K5A      -0.063300
      3 C03          3.3350    -3.5630    -1.4920 ca         1 K5A      -0.076000
      4 C04          2.8630    -4.1020    -0.2800 ca         1 K5A      -0.012000
      5 C05          2.0250    -5.2700    -0.2890 cg         1 K5A       0.323000
      6 C07          3.2130    -3.4940     0.9400 ca         1 K5A      -0.076000
      7 C08          4.0290    -2.3470     0.9590 ca         1 K5A      -0.063300
      8 C09          4.3920    -1.7000     2.2920 c3         1 K5A      -0.048800
      9 C10          4.4910    -1.8080    -0.2640 ca         1 K5A       0.125100
     10 C12          4.6850     0.5790    -0.1330 ca         1 K5A       0.430300
     11 C14          2.8650     1.9750    -0.0030 ca         1 K5A       0.423900
     12 C16          0.4930     1.0440    -0.1000 c6         1 K5A       0.247500
     13 C17          0.3700     0.3030     1.2510 c6         1 K5A      -0.093400
     14 C18         -0.7210    -0.7870     1.1680 c6         1 K5A       0.170300
     15 C21         -4.5120    -0.6440     0.5760 ca         1 K5A      -0.029300
     16 C22         -5.0650     0.2390     1.5230 ca         1 K5A      -0.123500
     17 C23         -6.3460     0.7830     1.3290 ca         1 K5A      -0.011500
     18 C24         -7.0900     0.4440     0.1810 ca         1 K5A      -0.274500
     19 C29         -6.5390    -0.4380    -0.7710 ca         1 K5A      -0.011500
     20 C30         -5.2570    -0.9780    -0.5720 ca         1 K5A      -0.123500
     21 C31         -1.9440     0.4990    -0.5430 c6         1 K5A       0.170300
     22 C32         -0.8810     1.6200    -0.5030 c6         1 K5A      -0.093400
     23 C34          4.9110     2.9300     0.1940 ca         1 K5A       0.205800
     24 C35          5.8670     3.9880     0.3780 cc         1 K5A      -0.308800
     25 C36          7.1710     3.5080     0.3640 cd         1 K5A      -0.142400
     26 C38          5.5020     1.6990     0.0460 ca         1 K5A      -0.369000
     27 N06          1.3360    -6.2130    -0.2940 n1         1 K5A      -0.450000
     28 N13          3.3450     0.7270    -0.1660 nb         1 K5A      -0.325000
     29 N15          1.4860     2.1320    -0.0130 nu         1 K5A      -0.918100
     30 N19         -2.0330    -0.2150     0.7630 n3         1 K5A      -0.726600
     31 N26         -8.4290     2.5060    -0.9010 n8         1 K5A      -1.004100
     32 N33          3.5810     3.1010     0.1770 nb         1 K5A      -0.248000
     33 O11          5.2590    -0.6640    -0.2640 os         1 K5A      -0.361400
     34 O27         -9.5000     0.3260    -1.0120 o          1 K5A      -0.545000
     35 O28         -9.2940     1.6150     1.1890 o          1 K5A      -0.545000
     36 S25         -8.7290     1.1350    -0.0700 sy         1 K5A       1.125600
     37 S37          7.2730     1.7360     0.1240 ss         1 K5A       0.133400
     38 H1           5.7340    -1.7280    -2.8130 hc         1 K5A       0.052367
     39 H2           4.3680    -2.4570    -3.6660 hc         1 K5A       0.052367
     40 H3           4.2140    -0.8330    -2.9790 hc         1 K5A       0.052367
     41 H4           3.0630    -4.0340    -2.4340 ha         1 K5A       0.128000
     42 H5           2.8460    -3.9120     1.8760 ha         1 K5A       0.128000
     43 H6           5.4560    -1.4370     2.3290 hc         1 K5A       0.052367
     44 H7           3.8150    -0.7820     2.4520 hc         1 K5A       0.052367
     45 H8           4.1920    -2.3690     3.1360 hc         1 K5A       0.052367
     46 H9           0.7910     0.3200    -0.8760 h1         1 K5A       0.073700
     47 H10          1.3260    -0.1620     1.5250 hc         1 K5A       0.056450
     48 H11          0.1200     1.0120     2.0510 hc         1 K5A       0.056450
     49 H12         -0.4030    -1.5590     0.4510 h1         1 K5A       0.036950
     50 H13         -0.8040    -1.2750     2.1510 h1         1 K5A       0.036950
     51 H14         -3.1200    -1.7350     1.7700 h1         1 K5A       0.047200
     52 H15         -2.9280    -2.0030     0.0390 h1         1 K5A       0.047200
     53 H16         -4.4940     0.5080     2.4090 ha         1 K5A       0.127000
     54 H17         -6.7540     1.4680     2.0720 ha         1 K5A       0.136500
     55 H18         -7.0990    -0.7060    -1.6660 ha         1 K5A       0.136500
     56 H19         -4.8410    -1.6560    -1.3140 ha         1 K5A       0.127000
     57 H20         -2.9110     0.9520    -0.8040 h1         1 K5A       0.036950
     58 H21         -1.6910    -0.2090    -1.3470 h1         1 K5A       0.036950
     59 H22         -1.1950     2.3930     0.2110 hc         1 K5A       0.056450
     60 H23         -0.8150     2.1000    -1.4880 hc         1 K5A       0.056450
     61 H24          5.6090     5.0360     0.5130 ha         1 K5A       0.219000
     62 H25          8.0890     4.0750     0.4800 h4         1 K5A       0.219000
     63 H26          1.1580     3.0860     0.1350 hn         1 K5A       0.507000
     64 H28         -9.0610     2.3840    -1.6890 hn         1 K5A       0.472500
     65 H29         -8.9290     3.1800    -0.3280 hn         1 K5A       0.472500
     66 C20         -3.1170    -1.2290     0.7950 c3         1 K5A       0.206100
@<TRIPOS>BOND
     1     1     2 1   
     2     1    38 1   
     3     1    39 1   
     4     1    40 1   
     5     2     3 ar  
     6     2     9 ar  
     7     3     4 ar  
     8     3    41 1   
     9     4     5 1   
    10     4     6 ar  
    11     5    27 3   
    12     6     7 ar  
    13     6    42 1   
    14     7     8 1   
    15     7     9 ar  
    16     8    43 1   
    17     8    44 1   
    18     8    45 1   
    19     9    33 1   
    20    10    26 ar  
    21    10    28 ar  
    22    10    33 1   
    23    11    28 ar  
    24    11    29 1   
    25    11    32 ar  
    26    12    13 1   
    27    12    22 1   
    28    12    29 1   
    29    12    46 1   
    30    13    14 1   
    31    13    47 1   
    32    13    48 1   
    33    14    30 1   
    34    14    49 1   
    35    14    50 1   
    36    15    16 ar  
    37    15    20 ar  
    38    15    66 1   
    39    16    17 ar  
    40    16    53 1   
    41    17    18 ar  
    42    17    54 1   
    43    18    19 ar  
    44    18    36 1   
    45    19    20 ar  
    46    19    55 1   
    47    20    56 1   
    48    21    22 1   
    49    21    30 1   
    50    21    57 1   
    51    21    58 1   
    52    22    59 1   
    53    22    60 1   
    54    23    24 1   
    55    23    26 ar  
    56    23    32 ar  
    57    24    25 2   
    58    24    61 1   
    59    25    37 1   
    60    25    62 1   
    61    26    37 1   
    62    29    63 1   
    63    30    66 1   
    64    31    36 1   
    65    31    64 1   
    66    31    65 1   
    67    34    36 2   
    68    35    36 2   
    69    51    66 1   
    70    52    66 1   
@<TRIPOS>SUBSTRUCTURE
     1 K5A         1 TEMP              0 ****  ****    0 ROOT
