@<TRIPOS>MOLECULE
K5A
   66    70     1     0     0
SMALL
abcg2


@<TRIPOS>ATOM
      1 C01          4.3700    -1.5670    -2.6660 c3         1 K5A      -0.048800
      2 C02          3.7960    -2.1770    -1.4240 ca         1 K5A      -0.063300
      3 C03          2.8870    -3.2230    -1.4880 ca         1 K5A      -0.076000
      4 C04          2.3510    -3.7590    -0.3210 ca         1 K5A      -0.012000
      5 C05          1.4050    -4.8240    -0.4040 cg         1 K5A       0.323000
      6 C07          2.7250    -3.2690     0.9270 ca         1 K5A      -0.076000
      7 C08          3.6350    -2.2270     1.0240 ca         1 K5A      -0.063300
      8 C09          4.0420    -1.6770     2.3570 c3         1 K5A      -0.048800
      9 C10          4.1460    -1.7080    -0.1620 ca         1 K5A       0.125100
     10 C12          4.6070     0.5620    -0.0040 ca         1 K5A       0.430300
     11 C14          2.8730     2.0330     0.0400 ca         1 K5A       0.423900
     12 C16          0.6100     1.0820    -0.1350 c6         1 K5A       0.247500
     13 C17          0.4260     0.3370     1.1840 c6         1 K5A      -0.093400
     14 C18         -0.5840    -0.7870     1.0210 c6         1 K5A       0.170300
     15 C21         -4.2630    -0.7350     0.3990 ca         1 K5A      -0.029300
     16 C22         -4.6190     0.3940     1.1370 ca         1 K5A      -0.123500
     17 C23         -5.9040     0.8980     1.0820 ca         1 K5A      -0.011500
     18 C24         -6.8470     0.2680     0.2760 ca         1 K5A      -0.274500
     19 C29         -6.5180    -0.8550    -0.4650 ca         1 K5A      -0.011500
     20 C30         -5.2210    -1.3470    -0.3990 ca         1 K5A      -0.123500
     21 C31         -1.7190     0.4090    -0.7220 c6         1 K5A       0.170300
     22 C32         -0.7420     1.5700    -0.6330 c6         1 K5A      -0.093400
     23 C34          4.9450     2.8890     0.2640 ca         1 K5A       0.205800
     24 C35          5.9640     3.8820     0.4390 cc         1 K5A      -0.308800
     25 C36          7.2040     3.3380     0.4640 cd         1 K5A      -0.142400
     26 C38          5.5070     1.6090     0.1610 ca         1 K5A      -0.369000
     27 N06          0.6390    -5.6830    -0.4730 n1         1 K5A      -0.450000
     28 N13          3.3260     0.7680    -0.0710 nb         1 K5A      -0.325000
     29 N15          1.5390     2.1890    -0.0410 nu         1 K5A      -0.918100
     30 N19         -1.8590    -0.2730     0.5520 n3         1 K5A      -0.726600
     31 N26         -8.2590     2.3250    -0.5970 n8         1 K5A      -1.004100
     32 N33          3.6290     3.1130     0.2090 nb         1 K5A      -0.248000
     33 O11          5.0770    -0.6900    -0.0840 os         1 K5A      -0.361400
     34 O27         -9.3230    -0.0380    -0.5060 o          1 K5A      -0.545000
     35 O28         -8.9070     1.2990     1.5650 o          1 K5A      -0.545000
     36 S25         -8.4920     0.9110     0.2240 sy         1 K5A       1.125600
     37 S37          7.2270     1.6230     0.2810 ss         1 K5A       0.133400
     38 H1           5.4580    -1.6330    -2.6810 hc         1 K5A       0.052367
     39 H2           3.9920    -2.0740    -3.5510 hc         1 K5A       0.052367
     40 H3           4.1040    -0.5130    -2.7520 hc         1 K5A       0.052367
     41 H4           2.5880    -3.6160    -2.4510 ha         1 K5A       0.128000
     42 H5           2.3000    -3.6950     1.8270 ha         1 K5A       0.128000
     43 H6           5.1250    -1.6700     2.4780 hc         1 K5A       0.052367
     44 H7           3.6920    -0.6510     2.4890 hc         1 K5A       0.052367
     45 H8           3.6170    -2.2720     3.1620 hc         1 K5A       0.052367
     46 H9           1.0110     0.3760    -0.8690 h1         1 K5A       0.073700
     47 H10          1.3790    -0.0790     1.5170 hc         1 K5A       0.056450
     48 H11          0.0770     1.0350     1.9500 hc         1 K5A       0.056450
     49 H12         -0.1720    -1.5480     0.3330 h1         1 K5A       0.036950
     50 H13         -0.7380    -1.2850     1.9810 h1         1 K5A       0.036950
     51 H14         -2.8090    -1.8940     1.4160 h1         1 K5A       0.047200
     52 H15         -2.7090    -2.0110    -0.3330 h1         1 K5A       0.047200
     53 H16         -3.8750     0.8840     1.7510 ha         1 K5A       0.127000
     54 H17         -6.1630     1.7780     1.6570 ha         1 K5A       0.136500
     55 H18         -7.2480    -1.3420    -1.0960 ha         1 K5A       0.136500
     56 H19         -4.9570    -2.2190    -0.9840 ha         1 K5A       0.127000
     57 H20         -2.6950     0.7840    -1.0350 h1         1 K5A       0.036950
     58 H21         -1.3840    -0.2910    -1.5090 h1         1 K5A       0.036950
     59 H22         -1.1390     2.3290     0.0500 hc         1 K5A       0.056450
     60 H23         -0.6420     2.0330    -1.6170 hc         1 K5A       0.056450
     61 H24          5.7640     4.9380     0.5400 ha         1 K5A       0.219000
     62 H25          8.1390     3.8640     0.5840 h4         1 K5A       0.219000
     63 H26          1.1810     3.1110     0.1520 hn         1 K5A       0.507000
     64 H28         -8.1010     2.1820    -1.5890 hn         1 K5A       0.472500
     65 H29         -9.0320     2.9690    -0.4540 hn         1 K5A       0.472500
     66 C20         -2.8710    -1.3020     0.4970 c3         1 K5A       0.206100
@<TRIPOS>BOND
     1     1     2 1   
     2     1    38 1   
     3     1    39 1   
     4     1    40 1   
     5     2     3 ar  
     6     2     9 ar  
     7     3     4 ar  
     8     3    41 1   
     9     4     5 1   
    10     4     6 ar  
    11     5    27 3   
    12     6     7 ar  
    13     6    42 1   
    14     7     8 1   
    15     7     9 ar  
    16     8    43 1   
    17     8    44 1   
    18     8    45 1   
    19     9    33 1   
    20    10    26 ar  
    21    10    28 ar  
    22    10    33 1   
    23    11    28 ar  
    24    11    29 1   
    25    11    32 ar  
    26    12    13 1   
    27    12    22 1   
    28    12    29 1   
    29    12    46 1   
    30    13    14 1   
    31    13    47 1   
    32    13    48 1   
    33    14    30 1   
    34    14    49 1   
    35    14    50 1   
    36    15    16 ar  
    37    15    20 ar  
    38    15    66 1   
    39    16    17 ar  
    40    16    53 1   
    41    17    18 ar  
    42    17    54 1   
    43    18    19 ar  
    44    18    36 1   
    45    19    20 ar  
    46    19    55 1   
    47    20    56 1   
    48    21    22 1   
    49    21    30 1   
    50    21    57 1   
    51    21    58 1   
    52    22    59 1   
    53    22    60 1   
    54    23    24 1   
    55    23    26 ar  
    56    23    32 ar  
    57    24    25 2   
    58    24    61 1   
    59    25    37 1   
    60    25    62 1   
    61    26    37 1   
    62    29    63 1   
    63    30    66 1   
    64    31    36 1   
    65    31    64 1   
    66    31    65 1   
    67    34    36 2   
    68    35    36 2   
    69    51    66 1   
    70    52    66 1   
@<TRIPOS>SUBSTRUCTURE
     1 K5A         1 TEMP              0 ****  ****    0 ROOT
