@<TRIPOS>MOLECULE
K5B
   26    26     1     0     0
SMALL
abcg2


@<TRIPOS>ATOM
      1 O1           3.7060    -0.5090     0.9810 o          1 K5B      -0.700500
      2 C1           3.5120     0.2430     0.0110 c          1 K5B       0.649000
      3 O3           4.2750     1.0810    -0.4890 o          1 K5B      -0.700500
      4 C2           2.1190     0.1090    -0.6690 c          1 K5B       0.433100
      5 O2           1.9030     0.6380    -1.7340 o          1 K5B      -0.558100
      6 C3           1.0840    -0.7240     0.0450 c3         1 K5B      -0.184400
      7 C4          -0.2970    -0.6340    -0.5640 c5         1 K5B       0.182300
      8 O7          -0.8290     0.6680    -0.3600 os         1 K5B      -0.409000
      9 C7          -2.2410     0.6120    -0.2340 c5         1 K5B       0.141300
     10 C8          -2.6840     1.2210     1.0800 c3         1 K5B       0.152600
     11 O8          -2.3140     2.5810     1.0930 oh         1 K5B      -0.695000
     12 C6          -2.6310    -0.8690    -0.3620 c5         1 K5B       0.093300
     13 O6          -2.9300    -1.2350    -1.6890 oh         1 K5B      -0.710000
     14 C5          -1.3330    -1.5850     0.0210 c5         1 K5B       0.131300
     15 O5          -1.1730    -1.6650     1.4140 oh         1 K5B      -0.690000
     16 H2           1.4310    -1.7630     0.0200 hc         1 K5B       0.077700
     17 H3           1.0680    -0.4520     1.1010 hc         1 K5B       0.077700
     18 H4          -0.2310    -0.8490    -1.6390 h1         1 K5B       0.062700
     19 H5          -2.7030     1.1880    -1.0500 h1         1 K5B       0.051700
     20 H6          -3.7730     1.0990     1.1580 h1         1 K5B       0.017200
     21 H7          -2.2350     0.6680     1.9130 h1         1 K5B       0.017200
     22 H8          -2.6060     2.9590     1.9270 ho         1 K5B       0.489000
     23 H9          -3.4570    -1.1320     0.3130 h1         1 K5B       0.028700
     24 H10         -3.6700    -0.7030    -1.9980 ho         1 K5B       0.500000
     25 H11         -1.2730    -2.5730    -0.4520 h1         1 K5B       0.056700
     26 H12         -1.8640    -2.2360     1.7650 ho         1 K5B       0.484000
@<TRIPOS>BOND
     1     1     2 1   
     2     2     3 1   
     3     2     4 1   
     4     4     5 2   
     5     4     6 1   
     6     6     7 1   
     7     6    16 1   
     8     6    17 1   
     9     7     8 1   
    10     7    14 1   
    11     7    18 1   
    12     8     9 1   
    13     9    10 1   
    14     9    12 1   
    15     9    19 1   
    16    10    11 1   
    17    10    20 1   
    18    10    21 1   
    19    11    22 1   
    20    12    13 1   
    21    12    14 1   
    22    12    23 1   
    23    13    24 1   
    24    14    15 1   
    25    14    25 1   
    26    15    26 1   
@<TRIPOS>SUBSTRUCTURE
     1 K5B         1 TEMP              0 ****  ****    0 ROOT
