@<TRIPOS>MOLECULE
K5B
   26    26     1     0     0
SMALL
No Charge or Current Charge


@<TRIPOS>ATOM
      1 O1           3.0190     0.7700     1.2320 o          1 K5B      -0.700500
      2 C1           2.7940     0.8990     0.0310 c          1 K5B       0.649000
      3 O3           3.0480     1.9300    -0.5890 o          1 K5B      -0.700500
      4 C2           2.2190    -0.3740    -0.7910 c          1 K5B       0.433100
      5 O2           2.6140    -0.6620    -1.9250 o          1 K5B      -0.558100
      6 C3           1.1500    -1.2360    -0.1050 c3         1 K5B      -0.184400
      7 C4          -0.2550    -0.8340    -0.5970 c5         1 K5B       0.182300
      8 O7          -0.5400     0.5290    -0.2150 os         1 K5B      -0.409000
      9 C7          -1.9850     0.7040    -0.1370 c5         1 K5B       0.141300
     10 C8          -2.3670     1.2610     1.2680 c3         1 K5B       0.152600
     11 O8          -2.0130     2.6500     1.3990 oh         1 K5B      -0.695000
     12 C6          -2.6120    -0.7060    -0.4650 c5         1 K5B       0.093300
     13 O6          -2.9120    -0.8470    -1.8660 oh         1 K5B      -0.710000
     14 C5          -1.4550    -1.6630    -0.0280 c5         1 K5B       0.131300
     15 O5          -1.3940    -1.8620     1.3980 oh         1 K5B      -0.690000
     16 H2           1.3280    -2.2890    -0.3450 hc         1 K5B       0.077700
     17 H3           1.1920    -1.0830     0.9790 hc         1 K5B       0.077700
     18 H4          -0.2610    -0.8880    -1.6950 h1         1 K5B       0.062700
     19 H5          -2.2920     1.4420    -0.8900 h1         1 K5B       0.051700
     20 H6          -3.4510     1.1450     1.4050 h1         1 K5B       0.017200
     21 H7          -1.8710     0.6670     2.0450 h1         1 K5B       0.017200
     22 H8          -2.2120     2.9100     2.3270 ho         1 K5B       0.489000
     23 H9          -3.5220    -0.8890     0.1240 h1         1 K5B       0.028700
     24 H10         -3.7230    -0.3170    -2.0500 ho         1 K5B       0.500000
     25 H11         -1.5290    -2.6340    -0.5380 h1         1 K5B       0.056700
     26 H12         -2.1180    -2.4860     1.6340 ho         1 K5B       0.484000
@<TRIPOS>BOND
     1     1     2 1   
     2     2     3 1   
     3     2     4 1   
     4     4     5 2   
     5     4     6 1   
     6     6     7 1   
     7     6    16 1   
     8     6    17 1   
     9     7     8 1   
    10     7    14 1   
    11     7    18 1   
    12     8     9 1   
    13     9    10 1   
    14     9    12 1   
    15     9    19 1   
    16    10    11 1   
    17    10    20 1   
    18    10    21 1   
    19    11    22 1   
    20    12    13 1   
    21    12    14 1   
    22    12    23 1   
    23    13    24 1   
    24    14    15 1   
    25    14    25 1   
    26    15    26 1   
@<TRIPOS>SUBSTRUCTURE
     1 K5B         1 TEMP              0 ****  ****    0 ROOT
