@<TRIPOS>MOLECULE
K5C
   70    74     1     0     0
SMALL
No Charge or Current Charge


@<TRIPOS>ATOM
      1 C01          4.3550     1.1120    -2.4990 c3         1 K5C      -0.048300
      2 C02          3.9790     1.8920    -1.2430 ca         1 K5C      -0.061300
      3 C03          3.1480     3.0240    -1.3490 ca         1 K5C      -0.090500
      4 C04          2.7770     3.7590    -0.2060 ca         1 K5C      -0.069800
      5 C05          1.8870     4.9480    -0.3630 ce         1 K5C      -0.095200
      6 C06          1.3280     5.7410     0.5970 cf         1 K5C      -0.119700
      7 C07          0.4850     6.8560     0.3140 ch         1 K5C       0.270700
      8 C09          3.2550     3.3530     1.0560 ca         1 K5C      -0.090500
      9 C10          4.0860     2.2220     1.1820 ca         1 K5C      -0.061300
     10 C11          4.5770     1.7870     2.5580 c3         1 K5C      -0.048300
     11 C12          4.4400     1.4910     0.0300 ca         1 K5C       0.119100
     12 C14          4.6530    -0.8940     0.1520 ca         1 K5C       0.430300
     13 C16          2.8410    -2.3060     0.1680 ca         1 K5C       0.426900
     14 C18          0.4650    -1.3810     0.1940 c6         1 K5C       0.251500
     15 C19         -0.9040    -1.9220     0.6550 c6         1 K5C      -0.092400
     16 C20         -1.9690    -0.8040     0.6030 c6         1 K5C       0.169800
     17 C23         -4.5460     0.2330    -0.5980 ca         1 K5C      -0.030300
     18 C24         -5.1050    -0.7210    -1.4700 ca         1 K5C      -0.122000
     19 C25         -6.3850    -1.2490    -1.2270 ca         1 K5C      -0.012500
     20 C26         -7.1210    -0.8230    -0.1010 ca         1 K5C      -0.271500
     21 C31         -6.5640     0.1310     0.7750 ca         1 K5C      -0.012500
     22 C32         -5.2830     0.6540     0.5250 ca         1 K5C      -0.122000
     23 C33         -0.7600     0.3300    -1.2210 c6         1 K5C       0.169800
     24 C34          0.3320    -0.7610    -1.2160 c6         1 K5C      -0.092400
     25 C36          4.8930    -3.2650     0.0550 ca         1 K5C       0.204800
     26 C37          5.8550    -4.3300    -0.0290 cc         1 K5C      -0.308800
     27 C38          7.1550    -3.8430    -0.0700 cd         1 K5C      -0.141400
     28 C40          5.4770    -2.0210     0.0790 ca         1 K5C      -0.368000
     29 N08         -0.1980     7.7620     0.0430 n1         1 K5C      -0.449000
     30 N15          3.3150    -1.0470     0.2060 nb         1 K5C      -0.328000
     31 N17          1.4630    -2.4690     0.1990 nu         1 K5C      -0.923100
     32 N21         -2.0690    -0.2070    -0.7590 n3         1 K5C      -0.724600
     33 N28         -8.4140    -2.7440     1.2160 n8         1 K5C      -1.003100
     34 N35          3.5630    -3.4410     0.0950 nb         1 K5C      -0.248000
     35 O13          5.2180     0.3600     0.1550 os         1 K5C      -0.359400
     36 O29         -9.5420    -0.5630     1.0330 o          1 K5C      -0.545000
     37 O30         -9.2790    -2.1370    -0.9810 o          1 K5C      -0.545000
     38 S27         -8.7560    -1.4920     0.2210 sy         1 K5C       1.125600
     39 S39          7.2470    -2.0560    -0.0040 ss         1 K5C       0.130400
     40 H1           5.4210     0.8550    -2.5030 hc         1 K5C       0.051200
     41 H2           3.7850     0.1780    -2.5650 hc         1 K5C       0.051200
     42 H3           4.1550     1.6870    -3.4100 hc         1 K5C       0.051200
     43 H4           2.7840     3.3300    -2.3270 ha         1 K5C       0.117500
     44 H5           1.6640     5.1960    -1.4030 ha         1 K5C       0.184000
     45 H6           1.5080     5.5410     1.6510 ha         1 K5C       0.202000
     46 H7           2.9850     3.9080     1.9490 ha         1 K5C       0.117500
     47 H8           4.1570     0.8120     2.8330 hc         1 K5C       0.051200
     48 H9           5.6700     1.6970     2.5750 hc         1 K5C       0.051200
     49 H10          4.2950     2.5020     3.3400 hc         1 K5C       0.051200
     50 H11          0.7650    -0.5900     0.9020 h1         1 K5C       0.068700
     51 H12         -1.2200    -2.7550     0.0130 hc         1 K5C       0.057700
     52 H13         -0.8310    -2.3140     1.6780 hc         1 K5C       0.057700
     53 H14         -2.9340    -1.2340     0.9090 h1         1 K5C       0.036700
     54 H15         -1.7140    -0.0280     1.3410 h1         1 K5C       0.036700
     55 H16         -3.1620     1.2210    -1.8860 h1         1 K5C       0.045700
     56 H17         -2.9630     1.6350    -0.1850 h1         1 K5C       0.045700
     57 H18         -4.5410    -1.0560    -2.3370 ha         1 K5C       0.126500
     58 H19         -6.7970    -1.9850    -1.9150 ha         1 K5C       0.136500
     59 H20         -7.1170     0.4680     1.6510 ha         1 K5C       0.136500
     60 H21         -4.8630     1.3880     1.2090 ha         1 K5C       0.126500
     61 H22         -0.4390     1.1620    -0.5750 h1         1 K5C       0.036700
     62 H23         -0.8500     0.7300    -2.2410 h1         1 K5C       0.036700
     63 H24          1.2850    -0.3210    -1.5360 hc         1 K5C       0.057700
     64 H25          0.0790    -1.5380    -1.9490 hc         1 K5C       0.057700
     65 H26          5.6020    -5.3870    -0.0600 ha         1 K5C       0.219000
     66 H27          8.0760    -4.4140    -0.1340 h4         1 K5C       0.218000
     67 H28          1.1390    -3.4340     0.1470 hn         1 K5C       0.510000
     68 H30         -8.8920    -3.5050     0.7390 hn         1 K5C       0.472500
     69 H31         -7.4310    -2.9130     1.0200 hn         1 K5C       0.472500
     70 C22         -3.1540     0.7990    -0.8720 c3         1 K5C       0.206100
@<TRIPOS>BOND
     1     1     2 1   
     2     1    40 1   
     3     1    41 1   
     4     1    42 1   
     5     2     3 ar  
     6     2    11 ar  
     7     3     4 ar  
     8     3    43 1   
     9     4     5 1   
    10     4     8 ar  
    11     5     6 2   
    12     5    44 1   
    13     6     7 1   
    14     6    45 1   
    15     7    29 3   
    16     8     9 ar  
    17     8    46 1   
    18     9    10 1   
    19     9    11 ar  
    20    10    47 1   
    21    10    48 1   
    22    10    49 1   
    23    11    35 1   
    24    12    28 ar  
    25    12    30 ar  
    26    12    35 1   
    27    13    30 ar  
    28    13    31 1   
    29    13    34 ar  
    30    14    15 1   
    31    14    24 1   
    32    14    31 1   
    33    14    50 1   
    34    15    16 1   
    35    15    51 1   
    36    15    52 1   
    37    16    32 1   
    38    16    53 1   
    39    16    54 1   
    40    17    18 ar  
    41    17    22 ar  
    42    17    70 1   
    43    18    19 ar  
    44    18    57 1   
    45    19    20 ar  
    46    19    58 1   
    47    20    21 ar  
    48    20    38 1   
    49    21    22 ar  
    50    21    59 1   
    51    22    60 1   
    52    23    24 1   
    53    23    32 1   
    54    23    61 1   
    55    23    62 1   
    56    24    63 1   
    57    24    64 1   
    58    25    26 1   
    59    25    28 ar  
    60    25    34 ar  
    61    26    27 2   
    62    26    65 1   
    63    27    39 1   
    64    27    66 1   
    65    28    39 1   
    66    31    67 1   
    67    32    70 1   
    68    33    38 1   
    69    33    68 1   
    70    33    69 1   
    71    36    38 2   
    72    37    38 2   
    73    55    70 1   
    74    56    70 1   
@<TRIPOS>SUBSTRUCTURE
     1 K5C         1 TEMP              0 ****  ****    0 ROOT
