@<TRIPOS>MOLECULE
K5C
   70    74     1     0     0
SMALL
abcg2


@<TRIPOS>ATOM
      1 C01          4.2900     1.1780    -2.5730 c3         1 K5C      -0.048300
      2 C02          3.7080     1.7840    -1.3320 ca         1 K5C      -0.061300
      3 C03          2.7030     2.7400    -1.3990 ca         1 K5C      -0.090500
      4 C04          2.1250     3.2750    -0.2490 ca         1 K5C      -0.069800
      5 C05          1.0300     4.2200    -0.4070 ce         1 K5C      -0.095200
      6 C06          0.2790     4.7330     0.5790 cf         1 K5C      -0.119700
      7 C07         -0.7780     5.6360     0.2990 ch         1 K5C       0.270700
      8 C09          2.6010     2.8650     0.9980 ca         1 K5C      -0.090500
      9 C10          3.6050     1.9170     1.1100 ca         1 K5C      -0.061300
     10 C11          4.0890     1.4500     2.4500 c3         1 K5C      -0.048300
     11 C12          4.1280     1.3910    -0.0680 ca         1 K5C       0.119100
     12 C14          4.6910    -0.8480     0.0290 ca         1 K5C       0.430300
     13 C16          2.9930    -2.3640     0.0470 ca         1 K5C       0.426900
     14 C18          0.7250    -1.4280     0.1730 c6         1 K5C       0.251500
     15 C19         -0.6350    -1.9110     0.6510 c6         1 K5C      -0.092400
     16 C20         -1.5980    -0.7370     0.7470 c6         1 K5C       0.169800
     17 C23         -4.1140     0.4860    -0.3600 ca         1 K5C      -0.030300
     18 C24         -4.5060    -0.6080    -1.1260 ca         1 K5C      -0.122000
     19 C25         -5.8100    -1.0750    -1.0820 ca         1 K5C      -0.012500
     20 C26         -6.7270    -0.4410    -0.2540 ca         1 K5C      -0.271500
     21 C31         -6.3580     0.6500     0.5210 ca         1 K5C      -0.012500
     22 C32         -5.0520     1.1060     0.4610 ca         1 K5C      -0.122000
     23 C33         -0.4350     0.4580    -0.9780 c6         1 K5C       0.169800
     24 C34          0.5580    -0.6790    -1.1470 c6         1 K5C      -0.092400
     25 C36          5.0880    -3.1810    -0.0450 ca         1 K5C       0.204800
     26 C37          6.1350    -4.1580    -0.1140 cc         1 K5C      -0.308800
     27 C38          7.3630    -3.5890    -0.1410 cd         1 K5C      -0.141400
     28 C40          5.6190    -1.8830    -0.0210 ca         1 K5C      -0.368000
     29 N08         -1.6440     6.3700     0.0910 n1         1 K5C      -0.449000
     30 N15          3.4150    -1.0860     0.0710 nb         1 K5C      -0.328000
     31 N17          1.6600    -2.5330     0.0930 nu         1 K5C      -0.923100
     32 N21         -1.7200    -0.0360    -0.5180 n3         1 K5C      -0.724600
     33 N28         -8.3480    -1.9380     1.2030 n8         1 K5C      -1.003100
     34 N35          3.7770    -3.4360    -0.0150 nb         1 K5C      -0.248000
     35 O13          5.1160     0.4230     0.0210 os         1 K5C      -0.359400
     36 O29         -9.2850     0.0890     0.1200 o          1 K5C      -0.545000
     37 O30         -8.6470    -1.8180    -1.3680 o          1 K5C      -0.545000
     38 S27         -8.3930    -1.0240    -0.1730 sy         1 K5C       1.125600
     39 S39          7.3430    -1.8640    -0.0880 ss         1 K5C       0.130400
     40 H1           5.3760     1.2770    -2.6050 hc         1 K5C       0.051200
     41 H2           4.0580     0.1140    -2.6460 hc         1 K5C       0.051200
     42 H3           3.8830     1.6600    -3.4600 hc         1 K5C       0.051200
     43 H4           2.3440     3.0570    -2.3710 ha         1 K5C       0.117500
     44 H5           0.8030     4.5090    -1.4270 ha         1 K5C       0.184000
     45 H6           0.4250     4.4900     1.6240 ha         1 K5C       0.202000
     46 H7           2.1780     3.2740     1.9080 ha         1 K5C       0.117500
     47 H8           3.8470     0.3980     2.6110 hc         1 K5C       0.051200
     48 H9           5.1690     1.5560     2.5520 hc         1 K5C       0.051200
     49 H10          3.6190     2.0220     3.2480 hc         1 K5C       0.051200
     50 H11          1.1130    -0.7170     0.9100 h1         1 K5C       0.068700
     51 H12         -1.0340    -2.6560    -0.0440 hc         1 K5C       0.057700
     52 H13         -0.5510    -2.3860     1.6310 hc         1 K5C       0.057700
     53 H14         -2.5820    -1.1030     1.0500 h1         1 K5C       0.036700
     54 H15         -1.2570    -0.0540     1.5460 h1         1 K5C       0.036700
     55 H16         -2.6290     1.6190    -1.3610 h1         1 K5C       0.045700
     56 H17         -2.5270     1.7120     0.3890 h1         1 K5C       0.045700
     57 H18         -3.7810    -1.1040    -1.7580 ha         1 K5C       0.126500
     58 H19         -6.0990    -1.9230    -1.6870 ha         1 K5C       0.136500
     59 H20         -7.0710     1.1420     1.1690 ha         1 K5C       0.136500
     60 H21         -4.7590     1.9560     1.0640 ha         1 K5C       0.126500
     61 H22         -0.0120     1.2080    -0.2850 h1         1 K5C       0.036700
     62 H23         -0.5760     0.9660    -1.9350 h1         1 K5C       0.036700
     63 H24          1.5170    -0.2720    -1.4730 hc         1 K5C       0.057700
     64 H25          0.2000    -1.3700    -1.9160 hc         1 K5C       0.057700
     65 H26          5.9610    -5.2240    -0.1400 ha         1 K5C       0.219000
     66 H27          8.3130    -4.0990    -0.1920 h4         1 K5C       0.218000
     67 H28          1.3100    -3.4750     0.0260 hn         1 K5C       0.510000
     68 H30         -9.2800    -2.0880     1.5800 hn         1 K5C       0.472500
     69 H31         -7.8790    -2.8270     1.0670 hn         1 K5C       0.472500
     70 C22         -2.7070     1.0170    -0.4500 c3         1 K5C       0.206100
@<TRIPOS>BOND
     1     1     2 1   
     2     1    40 1   
     3     1    41 1   
     4     1    42 1   
     5     2     3 ar  
     6     2    11 ar  
     7     3     4 ar  
     8     3    43 1   
     9     4     5 1   
    10     4     8 ar  
    11     5     6 2   
    12     5    44 1   
    13     6     7 1   
    14     6    45 1   
    15     7    29 3   
    16     8     9 ar  
    17     8    46 1   
    18     9    10 1   
    19     9    11 ar  
    20    10    47 1   
    21    10    48 1   
    22    10    49 1   
    23    11    35 1   
    24    12    28 ar  
    25    12    30 ar  
    26    12    35 1   
    27    13    30 ar  
    28    13    31 1   
    29    13    34 ar  
    30    14    15 1   
    31    14    24 1   
    32    14    31 1   
    33    14    50 1   
    34    15    16 1   
    35    15    51 1   
    36    15    52 1   
    37    16    32 1   
    38    16    53 1   
    39    16    54 1   
    40    17    18 ar  
    41    17    22 ar  
    42    17    70 1   
    43    18    19 ar  
    44    18    57 1   
    45    19    20 ar  
    46    19    58 1   
    47    20    21 ar  
    48    20    38 1   
    49    21    22 ar  
    50    21    59 1   
    51    22    60 1   
    52    23    24 1   
    53    23    32 1   
    54    23    61 1   
    55    23    62 1   
    56    24    63 1   
    57    24    64 1   
    58    25    26 1   
    59    25    28 ar  
    60    25    34 ar  
    61    26    27 2   
    62    26    65 1   
    63    27    39 1   
    64    27    66 1   
    65    28    39 1   
    66    31    67 1   
    67    32    70 1   
    68    33    38 1   
    69    33    68 1   
    70    33    69 1   
    71    36    38 2   
    72    37    38 2   
    73    55    70 1   
    74    56    70 1   
@<TRIPOS>SUBSTRUCTURE
     1 K5C         1 TEMP              0 ****  ****    0 ROOT
