@<TRIPOS>MOLECULE
K5D
   35    37     1     0     0
SMALL
abcg2


@<TRIPOS>ATOM
      1 C10         -2.9990    -2.2970    -0.7860 ca         1 K5D      -0.072000
      2 C17          6.6230     0.9550    -0.7500 cx         1 K5D      -0.133700
      3 C02          5.1870     0.0140     1.0100 c5         1 K5D       0.181300
      4 C03          4.3340     0.6760    -0.0980 c5         1 K5D       0.069700
      5 C05          1.9160     0.3620     0.2400 c          1 K5D       0.599100
      6 C06          0.7420    -0.4950    -0.2080 c3         1 K5D       0.074600
      7 C08         -1.5930    -0.5820     0.1320 ca         1 K5D       0.140100
      8 C09         -1.7360    -1.7400    -0.6270 ca         1 K5D      -0.192000
      9 C11         -4.1220    -1.7280    -0.2100 ca         1 K5D      -0.121000
     10 C12         -3.9530    -0.5710     0.5400 ca         1 K5D       0.017100
     11 C14         -2.7120     0.0100     0.7210 ca         1 K5D      -0.113000
     12 C16          5.2360     0.7550    -1.3350 c5         1 K5D      -0.059400
     13 C18          6.5920     0.4820     0.6840 cx         1 K5D      -0.131700
     14 C19          7.3740    -0.2720    -0.3480 cx         1 K5D      -0.093400
     15 N04          3.0730     0.0240    -0.3540 ns         1 K5D      -0.512900
     16 O07         -0.4230     0.0440     0.3560 os         1 K5D      -0.307100
     17 O15          1.8020     1.2500     1.0640 o          1 K5D      -0.558100
     18 BR1         -5.4620     0.2360     1.3410 br         1 K5D      -0.092100
     19 H1          -3.1050    -3.1980    -1.3760 ha         1 K5D       0.116000
     20 H2           7.1780     1.8440    -1.0210 hc         1 K5D       0.091700
     21 H3           4.8800     0.4020     1.9890 h1         1 K5D       0.053700
     22 H4           4.1280     1.6960     0.2320 h1         1 K5D       0.085700
     23 H5           0.6880    -0.5110    -1.3030 h1         1 K5D       0.049700
     24 H6           0.9100    -1.5270     0.1260 h1         1 K5D       0.049700
     25 H7          -0.8900    -2.2200    -1.0970 ha         1 K5D       0.116000
     26 H8          -5.0970    -2.1770    -0.3460 ha         1 K5D       0.133000
     27 H9          -2.5880     0.9100     1.3080 ha         1 K5D       0.150000
     28 H10          4.9430     1.5770    -1.9880 hc         1 K5D       0.052700
     29 H11          5.1760    -0.1610    -1.9310 hc         1 K5D       0.052700
     30 H12          7.1440     1.0130     1.4500 hc         1 K5D       0.094700
     31 H13          7.0160    -1.2360    -0.6870 hc         1 K5D       0.078200
     32 H14          8.4530    -0.2010    -0.2830 hc         1 K5D       0.078200
     33 H15          3.0650    -0.7230    -1.0330 hn         1 K5D       0.313500
     34 O01          5.1100    -1.3910     0.9910 oh         1 K5D      -0.654000
     35 H16          4.2040    -1.6450     1.1980 ho         1 K5D       0.444000
@<TRIPOS>BOND
     1     1     8 ar  
     2     1     9 ar  
     3     1    19 1   
     4     2    12 1   
     5     2    13 1   
     6     2    14 1   
     7     2    20 1   
     8     3     4 1   
     9     3    13 1   
    10     3    21 1   
    11     3    34 1   
    12     4    12 1   
    13     4    15 1   
    14     4    22 1   
    15     5     6 1   
    16     5    15 1   
    17     5    17 2   
    18     6    16 1   
    19     6    23 1   
    20     6    24 1   
    21     7     8 ar  
    22     7    11 ar  
    23     7    16 1   
    24     8    25 1   
    25     9    10 ar  
    26     9    26 1   
    27    10    11 ar  
    28    10    18 1   
    29    11    27 1   
    30    12    28 1   
    31    12    29 1   
    32    13    14 1   
    33    13    30 1   
    34    14    31 1   
    35    14    32 1   
    36    15    33 1   
    37    34    35 1   
@<TRIPOS>SUBSTRUCTURE
     1 K5D         1 TEMP              0 ****  ****    0 ROOT
