@<TRIPOS>MOLECULE
K5D
   35    37     1     0     0
SMALL
No Charge or Current Charge


@<TRIPOS>ATOM
      1 C10         -3.1160    -2.1930    -0.9560 ca         1 K5D      -0.072000
      2 C17          6.7290     0.8310    -0.7290 cx         1 K5D      -0.133700
      3 C02          5.1040     0.2310     1.0390 c5         1 K5D       0.181300
      4 C03          4.4000     0.8270    -0.2380 c5         1 K5D       0.069700
      5 C05          2.0100     0.3840     0.1530 c          1 K5D       0.599100
      6 C06          0.7640    -0.4160    -0.2930 c3         1 K5D       0.074600
      7 C08         -1.6500    -0.6280     0.2140 ca         1 K5D       0.140100
      8 C09         -1.8400    -1.6320    -0.7620 ca         1 K5D      -0.192000
      9 C11         -4.2020    -1.7560    -0.1790 ca         1 K5D      -0.121000
     10 C12         -4.0130    -0.7580     0.7910 ca         1 K5D       0.017100
     11 C14         -2.7400    -0.1960     0.9860 ca         1 K5D      -0.113000
     12 C16          5.3830     0.5060    -1.3990 c5         1 K5D      -0.059400
     13 C18          6.5810     0.5990     0.7620 cx         1 K5D      -0.131700
     14 C19          7.4060    -0.3560    -0.0830 cx         1 K5D      -0.093400
     15 N04          3.1750     0.0470    -0.5220 ns         1 K5D      -0.512900
     16 O07         -0.4220    -0.0430     0.4470 os         1 K5D      -0.307100
     17 O15          1.9860     1.2400     1.0300 o          1 K5D      -0.558100
     18 Br1         -5.4910    -0.1630     1.8480 br         1 K5D      -0.092100
     19 H1          -3.2630    -2.9660    -1.7070 ha         1 K5D       0.116000
     20 H2           7.3320     1.6720    -1.0640 hc         1 K5D       0.091700
     21 H3           4.7250     0.7450     1.9330 h1         1 K5D       0.053700
     22 H4           4.2300     1.9100    -0.1410 h1         1 K5D       0.085700
     23 H5           0.6230    -0.2330    -1.3660 h1         1 K5D       0.049700
     24 H6           0.9870    -1.4810    -0.1530 h1         1 K5D       0.049700
     25 H7          -1.0180    -1.9880    -1.3760 ha         1 K5D       0.116000
     26 H8          -5.1880    -2.1900    -0.3290 ha         1 K5D       0.133000
     27 H9          -2.5960     0.5760     1.7370 ha         1 K5D       0.150000
     28 H10          5.1900     1.1320    -2.2780 hc         1 K5D       0.052700
     29 H11          5.3290    -0.5390    -1.7280 hc         1 K5D       0.052700
     30 H12          7.1030     1.2740     1.4370 hc         1 K5D       0.094700
     31 H13          7.0240    -1.3520    -0.2940 hc         1 K5D       0.078200
     32 H14          8.4870    -0.3150     0.0290 hc         1 K5D       0.078200
     33 H15          3.1040    -0.6400    -1.2660 hn         1 K5D       0.313500
     34 O01          4.9290    -1.1810     1.2030 oh         1 K5D      -0.654000
     35 H16          4.0340    -1.3740     0.8550 ho         1 K5D       0.444000
@<TRIPOS>BOND
     1     1     8 ar  
     2     1     9 ar  
     3     1    19 1   
     4     2    12 1   
     5     2    13 1   
     6     2    14 1   
     7     2    20 1   
     8     3     4 1   
     9     3    13 1   
    10     3    21 1   
    11     3    34 1   
    12     4    12 1   
    13     4    15 1   
    14     4    22 1   
    15     5     6 1   
    16     5    15 1   
    17     5    17 2   
    18     6    16 1   
    19     6    23 1   
    20     6    24 1   
    21     7     8 ar  
    22     7    11 ar  
    23     7    16 1   
    24     8    25 1   
    25     9    10 ar  
    26     9    26 1   
    27    10    11 ar  
    28    10    18 1   
    29    11    27 1   
    30    12    28 1   
    31    12    29 1   
    32    13    14 1   
    33    13    30 1   
    34    14    31 1   
    35    14    32 1   
    36    15    33 1   
    37    34    35 1   
@<TRIPOS>SUBSTRUCTURE
     1 K5D         1 TEMP              0 ****  ****    0 ROOT
