@<TRIPOS>MOLECULE
K5E
   35    37     1     0     0
SMALL
No Charge or Current Charge


@<TRIPOS>ATOM
      1 S            3.0800    -2.7360    -0.7040 s          1 K5E      -0.661400
      2 C1          -3.6970    -1.0970    -0.0940 ca         1 K5E       0.135100
      3 N1           0.8710    -1.2880    -1.0110 ns         1 K5E      -0.434900
      4 O1          -4.9010    -1.1690    -0.7280 oh         1 K5E      -0.533100
      5 C2          -3.6060    -1.4400     1.2640 ca         1 K5E      -0.137000
      6 N2           2.6040    -0.2350     0.0720 ns         1 K5E      -0.363100
      7 O2          -0.8940     2.6120    -1.3210 oh         1 K5E      -0.659000
      8 C3          -2.3680    -1.3680     1.9250 ca         1 K5E      -0.076000
      9 C4          -1.2230    -0.9530     1.2240 ca         1 K5E      -0.127000
     10 C5          -1.3070    -0.6070    -0.1400 ca         1 K5E      -0.079300
     11 C6          -2.5540    -0.6820    -0.7950 ca         1 K5E      -0.190000
     12 C7          -0.0560    -0.1500    -0.9000 c6         1 K5E       0.213200
     13 C8           2.1490    -1.3650    -0.5400 cs         1 K5E       0.475400
     14 C9           1.8800     0.9510     0.2250 c2         1 K5E       0.041400
     15 C10          0.6260     1.0500    -0.2440 c2         1 K5E      -0.189400
     16 C11         -0.2240     2.3140    -0.0930 c6         1 K5E       0.232500
     17 C12          0.6270     3.5400     0.3240 c6         1 K5E      -0.112400
     18 C13          1.6200     3.1710     1.4480 c6         1 K5E      -0.066400
     19 C14          2.5980     2.0750     0.9640 c6         1 K5E      -0.043200
     20 HN1          0.5190    -2.1260    -1.4580 hn         1 K5E       0.353500
     21 HO1         -4.7760    -0.8940    -1.6610 ho         1 K5E       0.465000
     22 HO2         -1.4450     3.4050    -1.1490 ho         1 K5E       0.445000
     23 H3          -2.2960    -1.6330     2.9780 ha         1 K5E       0.119000
     24 H4          -0.2670    -0.8990     1.7420 ha         1 K5E       0.122000
     25 H6          -2.6270    -0.4150    -1.8470 ha         1 K5E       0.118000
     26 H7          -0.3440     0.1300    -1.9250 h1         1 K5E       0.086700
     27 H12          1.1890     3.9200    -0.5420 hc         1 K5E       0.054700
     28 H12A        -0.0290     4.3560     0.6560 hc         1 K5E       0.054700
     29 H13          2.1800     4.0590     1.7710 hc         1 K5E       0.050700
     30 H13A         1.0650     2.8110     2.3260 hc         1 K5E       0.050700
     31 H14          3.1430     1.6720     1.8290 hc         1 K5E       0.061200
     32 H14A         3.3520     2.5170     0.2980 hc         1 K5E       0.061200
     33 H15          3.5510    -0.2740     0.4300 hn         1 K5E       0.358500
     34 H16         -0.9640     2.1280     0.7000 h1         1 K5E       0.043700
     35 H2          -4.4930    -1.7610     1.8040 ha         1 K5E       0.131000
@<TRIPOS>BOND
     1     1    13 2   
     2     2     4 1   
     3     2     5 ar  
     4     2    11 ar  
     5     3    12 1   
     6     3    13 1   
     7     3    20 1   
     8     4    21 1   
     9     5     8 ar  
    10     5    35 1   
    11     6    13 1   
    12     6    14 1   
    13     6    33 1   
    14     7    16 1   
    15     7    22 1   
    16     8     9 ar  
    17     8    23 1   
    18     9    10 ar  
    19     9    24 1   
    20    10    11 ar  
    21    10    12 1   
    22    11    25 1   
    23    12    15 1   
    24    12    26 1   
    25    14    15 2   
    26    14    19 1   
    27    15    16 1   
    28    16    17 1   
    29    16    34 1   
    30    17    18 1   
    31    17    27 1   
    32    17    28 1   
    33    18    19 1   
    34    18    29 1   
    35    18    30 1   
    36    19    31 1   
    37    19    32 1   
@<TRIPOS>SUBSTRUCTURE
     1 K5E         1 TEMP              0 ****  ****    0 ROOT
