@<TRIPOS>MOLECULE
K5E
   35    37     1     0     0
SMALL
abcg2


@<TRIPOS>ATOM
      1 S            3.0950    -2.6860    -0.6090 s          1 K5E      -0.661400
      2 C1          -3.6410    -0.9230    -0.0030 ca         1 K5E       0.135100
      3 N1           0.9380    -1.2240    -1.0640 ns         1 K5E      -0.434900
      4 O1          -4.8840    -0.8490    -0.5230 oh         1 K5E      -0.533100
      5 C2          -3.5010    -1.4290     1.2850 ca         1 K5E      -0.137000
      6 N2           2.5330    -0.2410     0.2220 ns         1 K5E      -0.363100
      7 O2          -0.8580     2.4820    -1.4300 oh         1 K5E      -0.659000
      8 C3          -2.2360    -1.5240     1.8470 ca         1 K5E      -0.076000
      9 C4          -1.1110    -1.1190     1.1450 ca         1 K5E      -0.127000
     10 C5          -1.2520    -0.6120    -0.1430 ca         1 K5E      -0.079300
     11 C6          -2.5130    -0.5140    -0.7120 ca         1 K5E      -0.190000
     12 C7          -0.0350    -0.1490    -0.9240 c6         1 K5E       0.213200
     13 C8           2.1290    -1.3160    -0.4780 cs         1 K5E       0.475400
     14 C9           1.8080     0.9480     0.2980 c2         1 K5E       0.041400
     15 C10          0.6020     1.0440    -0.2640 c2         1 K5E      -0.189400
     16 C11         -0.2240     2.2960    -0.1780 c6         1 K5E       0.232500
     17 C12          0.6260     3.4990     0.2090 c6         1 K5E      -0.112400
     18 C13          1.5170     3.1690     1.3960 c6         1 K5E      -0.066400
     19 C14          2.4910     2.0560     1.0380 c6         1 K5E      -0.043200
     20 HN1          0.6470    -2.0320    -1.5930 hn         1 K5E       0.353500
     21 HO1         -4.8520    -0.5030    -1.4210 ho         1 K5E       0.465000
     22 HO2         -1.5700     3.1170    -1.3100 ho         1 K5E       0.445000
     23 H3          -2.1320    -1.9190     2.8500 ha         1 K5E       0.119000
     24 H4          -0.1330    -1.1980     1.6040 ha         1 K5E       0.122000
     25 H6          -2.6190    -0.1180    -1.7160 ha         1 K5E       0.118000
     26 H7          -0.3640     0.1230    -1.9290 h1         1 K5E       0.086700
     27 H12          1.2420     3.7880    -0.6490 hc         1 K5E       0.054700
     28 H12A        -0.0240     4.3470     0.4380 hc         1 K5E       0.054700
     29 H13          2.0690     4.0530     1.7180 hc         1 K5E       0.050700
     30 H13A         0.9020     2.8590     2.2460 hc         1 K5E       0.050700
     31 H14          2.9570     1.6530     1.9420 hc         1 K5E       0.061200
     32 H14A         3.3090     2.4430     0.4210 hc         1 K5E       0.061200
     33 H15          3.4300    -0.3000     0.6750 hn         1 K5E       0.358500
     34 H16         -0.9870     2.1440     0.6010 h1         1 K5E       0.043700
     35 H2          -4.3770    -1.7460     1.8380 ha         1 K5E       0.131000
@<TRIPOS>BOND
     1     1    13 2   
     2     2     4 1   
     3     2     5 ar  
     4     2    11 ar  
     5     3    12 1   
     6     3    13 1   
     7     3    20 1   
     8     4    21 1   
     9     5     8 ar  
    10     5    35 1   
    11     6    13 1   
    12     6    14 1   
    13     6    33 1   
    14     7    16 1   
    15     7    22 1   
    16     8     9 ar  
    17     8    23 1   
    18     9    10 ar  
    19     9    24 1   
    20    10    11 ar  
    21    10    12 1   
    22    11    25 1   
    23    12    15 1   
    24    12    26 1   
    25    14    15 2   
    26    14    19 1   
    27    15    16 1   
    28    16    17 1   
    29    16    34 1   
    30    17    18 1   
    31    17    27 1   
    32    17    28 1   
    33    18    19 1   
    34    18    29 1   
    35    18    30 1   
    36    19    31 1   
    37    19    32 1   
@<TRIPOS>SUBSTRUCTURE
     1 K5E         1 TEMP              0 ****  ****    0 ROOT
