@<TRIPOS>MOLECULE
K5F
   49    52     1     0     0
SMALL
bcc


@<TRIPOS>ATOM
      1 C5          13.7170    35.6700   -14.0360 c          1 K5F       0.700700
      2 C8           9.7100    35.7210    -8.8580 cc         1 K5F       0.128400
      3 C13          9.8430    37.0700    -9.0830 cd         1 K5F      -0.225100
      4 C17         11.9350    38.0920   -11.9130 cc         1 K5F      -0.189000
      5 C21          8.9430    35.0650    -7.7970 ca         1 K5F      -0.017800
      6 C22         14.2970    33.7910   -16.3570 c3         1 K5F       0.039600
      7 C24         17.9910    38.2920   -14.6660 c3         1 K5F       0.084800
      8 C26          8.2260    35.8070    -6.8560 ca         1 K5F      -0.107500
      9 C28          8.1950    33.0410    -6.7050 ca         1 K5F      -0.135500
     10 C1          15.4610    37.0890   -15.4180 cc         1 K5F      -0.318900
     11 C2          14.6390    35.9960   -15.1570 cd         1 K5F      -0.108900
     12 C3          10.9790    35.8880   -10.5710 cd         1 K5F      -0.002300
     13 N4          10.4110    35.0020    -9.7770 nc         1 K5F      -0.295600
     14 N6          10.6560    37.1730   -10.1800 na         1 K5F       0.018700
     15 C9          11.8160    35.6880   -11.6880 cd         1 K5F      -0.138000
     16 N10         14.8800    35.1020   -16.1410 na         1 K5F       0.158400
     17 N11         15.7680    35.5450   -17.0170 nd         1 K5F      -0.509800
     18 C12         16.1390    36.7350   -16.5930 cc         1 K5F       0.326200
     19 C14         12.2990    36.7820   -12.3590 cc         1 K5F       0.076600
     20 N15         13.1350    36.7490   -13.4680 ns         1 K5F      -0.461100
     21 C16         11.1290    38.2640   -10.8430 cd         1 K5F      -0.058300
     22 N18         16.7140    38.9710   -14.5520 n          1 K5F      -0.453800
     23 O19         13.5300    34.5160   -13.6950 o          1 K5F      -0.584100
     24 O20         14.4700    38.9570   -14.3870 o          1 K5F      -0.646100
     25 C23         16.7800    40.3290   -14.0450 c3         1 K5F       0.084800
     26 C25          8.9160    33.6720    -7.7080 ca         1 K5F      -0.107500
     27 C27          7.5060    35.1750    -5.8550 ca         1 K5F      -0.135500
     28 C29          7.4870    33.7880    -5.7740 ca         1 K5F      -0.125000
     29 H1           9.4530    37.9410    -8.5830 h4         1 K5F       0.180000
     30 H2          12.3100    38.9680   -12.4250 ha         1 K5F       0.162000
     31 H3          14.5370    33.5000   -17.3750 h1         1 K5F       0.071367
     32 H4          14.7100    33.0610   -15.6660 h1         1 K5F       0.071367
     33 H5          13.2170    33.8250   -16.2430 h1         1 K5F       0.071367
     34 H6          18.5910    38.5180   -13.7840 h1         1 K5F       0.047200
     35 H7          17.8660    37.2150   -14.7110 h1         1 K5F       0.047200
     36 H8          18.5410    38.6240   -15.5480 h1         1 K5F       0.047200
     37 H9           8.2260    36.8890    -6.8990 ha         1 K5F       0.138500
     38 H10          8.1870    31.9590    -6.6530 ha         1 K5F       0.128500
     39 H11         12.0440    34.6750   -11.9720 ha         1 K5F       0.190000
     40 H12         16.8590    37.3160   -17.1490 h4         1 K5F       0.046100
     41 H13         13.3970    37.6600   -13.8580 hn         1 K5F       0.375500
     42 H14         10.8310    39.2330   -10.4720 h4         1 K5F       0.163000
     43 H15         17.6850    40.8000   -14.4240 h1         1 K5F       0.047200
     44 H16         15.9250    40.9110   -14.3760 h1         1 K5F       0.047200
     45 H17         16.8150    40.3450   -12.9540 h1         1 K5F       0.047200
     46 H18          9.4660    33.0820    -8.4290 ha         1 K5F       0.138500
     47 H19          6.9580    35.7690    -5.1340 ha         1 K5F       0.128500
     48 H20          6.9250    33.2950    -4.9920 ha         1 K5F       0.128000
     49 C7          15.5180    38.3980   -14.7300 c          1 K5F       0.726700
@<TRIPOS>BOND
     1     1    11 1   
     2     1    20 1   
     3     1    23 2   
     4     2     3 2   
     5     2     5 1   
     6     2    13 1   
     7     3    14 1   
     8     3    29 1   
     9     4    19 1   
    10     4    21 2   
    11     4    30 1   
    12     5     8 ar  
    13     5    26 ar  
    14     6    16 1   
    15     6    31 1   
    16     6    32 1   
    17     6    33 1   
    18     7    22 1   
    19     7    34 1   
    20     7    35 1   
    21     7    36 1   
    22     8    27 ar  
    23     8    37 1   
    24     9    26 ar  
    25     9    28 ar  
    26     9    38 1   
    27    10    11 2   
    28    10    18 1   
    29    10    49 1   
    30    11    16 1   
    31    12    13 2   
    32    12    14 1   
    33    12    15 1   
    34    14    21 1   
    35    15    19 2   
    36    15    39 1   
    37    16    17 1   
    38    17    18 2   
    39    18    40 1   
    40    19    20 1   
    41    20    41 1   
    42    21    42 1   
    43    22    25 1   
    44    22    49 1   
    45    24    49 2   
    46    25    43 1   
    47    25    44 1   
    48    25    45 1   
    49    26    46 1   
    50    27    28 ar  
    51    27    47 1   
    52    28    48 1   
@<TRIPOS>SUBSTRUCTURE
     1 K5F         1 TEMP              0 ****  ****    0 ROOT
