@<TRIPOS>MOLECULE
K5F
   49    52     1     0     0
SMALL
No Charge or Current Charge


@<TRIPOS>ATOM
      1 C5          13.5430    35.6450   -14.1910 c          1 K5F       0.633700
      2 C8           9.7070    35.5980    -8.7840 cc         1 K5F       0.128400
      3 C13         10.0880    36.9250    -8.7680 cd         1 K5F      -0.275100
      4 C17         12.3660    37.9110   -11.4250 cc         1 K5F      -0.171000
      5 C21          8.8210    35.0270    -7.7560 ca         1 K5F      -0.017800
      6 C22         14.4980    33.6870   -16.4790 c3         1 K5F       0.068900
      7 C24         17.9960    38.5710   -14.9790 c3         1 K5F       0.084800
      8 C26          8.0550    35.8530    -6.9000 ca         1 K5F      -0.089500
      9 C28          7.8210    33.0640    -6.6810 ca         1 K5F      -0.117500
     10 C1          15.4320    37.0540   -15.4200 cc         1 K5F      -0.253600
     11 C2          14.6040    35.9460   -15.2210 cd         1 K5F      -0.159600
     12 C3          10.9940    35.7600   -10.4820 cd         1 K5F      -0.053000
     13 N4          10.2610    34.8800    -9.8250 nc         1 K5F      -0.295600
     14 N6          10.8910    36.9800    -9.8750 na         1 K5F       0.120100
     15 C9          11.7950    35.5450   -11.6420 cd         1 K5F      -0.120000
     16 N10         15.0180    35.0410   -16.2230 na         1 K5F       0.179800
     17 N11         16.0270    35.5350   -17.0270 nd         1 K5F      -0.509800
     18 C12         16.2350    36.7260   -16.5250 cc         1 K5F       0.260900
     19 C14         12.4850    36.6490   -12.1260 cc         1 K5F       0.076600
     20 N15         13.3180    36.6190   -13.2430 ns         1 K5F      -0.394100
     21 C16         11.5840    38.1130   -10.2920 cd         1 K5F      -0.091000
     22 N18         16.6460    39.1740   -14.8670 n          1 K5F      -0.386800
     23 O19         12.9280    34.5890   -14.1930 o          1 K5F      -0.584100
     24 O20         14.5060    38.8470   -14.1520 o          1 K5F      -0.646100
     25 C23         16.6140    40.5980   -14.4620 c3         1 K5F       0.084800
     26 C25          8.6810    33.6260    -7.6410 ca         1 K5F      -0.089500
     27 C27          7.1950    35.2900    -5.9410 ca         1 K5F      -0.117500
     28 C29          7.0800    33.8960    -5.8280 ca         1 K5F      -0.107000
     29 H1           9.8780    37.7590    -8.1110 h4         1 K5F       0.230000
     30 H2          12.9270    38.7550   -11.8160 ha         1 K5F       0.144000
     31 H3          15.0200    33.2390   -17.3320 h1         1 K5F       0.071367
     32 H4          14.6560    33.0600   -15.5930 h1         1 K5F       0.071367
     33 H5          13.4270    33.7420   -16.7040 h1         1 K5F       0.071367
     34 H6          18.6910    39.0870   -14.3040 h1         1 K5F       0.047200
     35 H7          17.9770    37.5110   -14.6940 h1         1 K5F       0.047200
     36 H8          18.3700    38.6750   -16.0050 h1         1 K5F       0.047200
     37 H9           8.1130    36.9350    -6.9740 ha         1 K5F       0.120500
     38 H10          7.7300    31.9830    -6.6000 ha         1 K5F       0.110500
     39 H11         11.8500    34.5600   -12.0840 ha         1 K5F       0.172000
     40 H12         16.9590    37.3520   -17.0270 h4         1 K5F       0.046100
     41 H13         13.8270    37.4720   -13.4400 hn         1 K5F       0.375500
     42 H14         11.4690    39.0380    -9.7390 h4         1 K5F       0.145000
     43 H15         17.5150    41.1140   -14.8180 h1         1 K5F       0.047200
     44 H16         15.7350    41.0920   -14.8950 h1         1 K5F       0.047200
     45 H17         16.5670    40.6710   -13.3680 h1         1 K5F       0.047200
     46 H18          9.2450    32.9630    -8.2930 ha         1 K5F       0.120500
     47 H19          6.6140    35.9370    -5.2860 ha         1 K5F       0.110500
     48 H20          6.4130    33.4610    -5.0850 ha         1 K5F       0.110000
     49 C7          15.4650    38.3960   -14.7600 c          1 K5F       0.659700
@<TRIPOS>BOND
     1     1    11 1   
     2     1    20 1   
     3     1    23 2   
     4     2     3 2   
     5     2     5 1   
     6     2    13 1   
     7     3    14 1   
     8     3    29 1   
     9     4    19 1   
    10     4    21 2   
    11     4    30 1   
    12     5     8 ar  
    13     5    26 ar  
    14     6    16 1   
    15     6    31 1   
    16     6    32 1   
    17     6    33 1   
    18     7    22 1   
    19     7    34 1   
    20     7    35 1   
    21     7    36 1   
    22     8    27 ar  
    23     8    37 1   
    24     9    26 ar  
    25     9    28 ar  
    26     9    38 1   
    27    10    11 2   
    28    10    18 1   
    29    10    49 1   
    30    11    16 1   
    31    12    13 2   
    32    12    14 1   
    33    12    15 1   
    34    14    21 1   
    35    15    19 2   
    36    15    39 1   
    37    16    17 1   
    38    17    18 2   
    39    18    40 1   
    40    19    20 1   
    41    20    41 1   
    42    21    42 1   
    43    22    25 1   
    44    22    49 1   
    45    24    49 2   
    46    25    43 1   
    47    25    44 1   
    48    25    45 1   
    49    26    46 1   
    50    27    28 ar  
    51    27    47 1   
    52    28    48 1   
@<TRIPOS>SUBSTRUCTURE
     1 K5F         1 TEMP              0 ****  ****    0 ROOT
