@<TRIPOS>MOLECULE
K5G
   36    37     1     0     0
SMALL
No Charge or Current Charge


@<TRIPOS>ATOM
      1 Br1         -6.3730     1.5420    -0.5300 br         1 K5G      -0.096100
      2 C02         -5.0630     0.1490    -0.5110 ca         1 K5G       0.019100
      3 C03         -3.7280     0.4470    -0.1910 ca         1 K5G      -0.122000
      4 C04         -2.7600    -0.5710    -0.1750 ca         1 K5G       0.149100
      5 C18         -3.1380    -1.8980    -0.4820 ca         1 K5G      -0.192000
      6 C19         -4.4760    -2.1930    -0.8010 ca         1 K5G      -0.072000
      7 C20         -5.4390    -1.1700    -0.8160 ca         1 K5G      -0.125000
      8 O05         -1.4640    -0.2230     0.1450 os         1 K5G      -0.342100
      9 C06         -0.4010    -1.1880     0.1900 c3         1 K5G       0.163600
     10 C07          0.8890    -0.4420     0.5780 c3         1 K5G      -0.071400
     11 C08          2.1260    -1.3710     0.6620 c3         1 K5G      -0.155400
     12 C09          3.3870    -0.5950     1.0560 c          1 K5G       0.610100
     13 O10          3.5770    -0.1980     2.1980 o          1 K5G      -0.580100
     14 N11          4.2950    -0.4060     0.0310 ns         1 K5G      -0.495900
     15 C12          5.5570     0.3210     0.3210 c5         1 K5G      -0.000300
     16 C13          6.5350    -0.7700     0.8550 c5         1 K5G      -0.090400
     17 C14          7.9140    -0.0690     0.7170 c5         1 K5G       0.059600
     18 S15          7.9480     0.5810    -1.0240 ss         1 K5G      -0.355600
     19 C16          6.1520     0.8380    -1.0160 c          1 K5G       0.582700
     20 O17          5.5390     1.3130    -1.9620 o          1 K5G      -0.457100
     21 H1          -3.4400     1.4670     0.0440 ha         1 K5G       0.145000
     22 H2          -2.4140    -2.7070    -0.4780 ha         1 K5G       0.118000
     23 H3          -4.7670    -3.2150    -1.0380 ha         1 K5G       0.115000
     24 H4          -6.4730    -1.3990    -1.0630 ha         1 K5G       0.132000
     25 H5          -0.6140    -1.9660     0.9350 h1         1 K5G       0.032700
     26 H6          -0.2680    -1.6650    -0.7900 h1         1 K5G       0.032700
     27 H7           1.0780     0.3500    -0.1580 hc         1 K5G       0.075700
     28 H8           1.9350    -2.1360     1.4230 hc         1 K5G       0.058200
     29 H9           4.0420    -0.7630    -0.8840 hn         1 K5G       0.316500
     30 H10          5.4480     1.1730     1.0070 h1         1 K5G       0.114700
     31 H11          6.3210    -1.0570     1.8910 hc         1 K5G       0.067700
     32 H12          6.5050    -1.6840     0.2490 hc         1 K5G       0.067700
     33 H13          8.0050     0.7680     1.4230 h1         1 K5G       0.081200
     34 H14          8.7540    -0.7550     0.8920 h1         1 K5G       0.081200
     35 H15          0.7370     0.0500     1.5480 hc         1 K5G       0.075700
     36 H16          2.2690    -1.8490    -0.3150 hc         1 K5G       0.058200
@<TRIPOS>BOND
     1     1     2 1   
     2     2     3 ar  
     3     2     7 ar  
     4     3     4 ar  
     5     3    21 1   
     6     4     5 ar  
     7     4     8 1   
     8     5     6 ar  
     9     5    22 1   
    10     6     7 ar  
    11     6    23 1   
    12     7    24 1   
    13     8     9 1   
    14     9    10 1   
    15     9    25 1   
    16     9    26 1   
    17    10    11 1   
    18    10    27 1   
    19    10    35 1   
    20    11    12 1   
    21    11    28 1   
    22    11    36 1   
    23    12    13 2   
    24    12    14 1   
    25    14    15 1   
    26    14    29 1   
    27    15    16 1   
    28    15    19 1   
    29    15    30 1   
    30    16    17 1   
    31    16    31 1   
    32    16    32 1   
    33    17    18 1   
    34    17    33 1   
    35    17    34 1   
    36    18    19 1   
    37    19    20 2   
@<TRIPOS>SUBSTRUCTURE
     1 K5G         1 TEMP              0 ****  ****    0 ROOT
