@<TRIPOS>MOLECULE
K5G
   36    37     1     0     0
SMALL
bcc


@<TRIPOS>ATOM
      1 BR1         -6.6620     1.0300     0.0440 br         1 K5G      -0.096100
      2 C02         -5.2050    -0.1480    -0.2070 ca         1 K5G       0.019100
      3 C03         -3.9280     0.3090     0.0550 ca         1 K5G      -0.140000
      4 C04         -2.8440    -0.5560    -0.1260 ca         1 K5G       0.149100
      5 C18         -3.0630    -1.8590    -0.5660 ca         1 K5G      -0.210000
      6 C19         -4.3610    -2.2830    -0.8210 ca         1 K5G      -0.090000
      7 C20         -5.4490    -1.4420    -0.6480 ca         1 K5G      -0.143000
      8 O05         -1.6360    -0.0380     0.1490 os         1 K5G      -0.318900
      9 C06         -0.4840    -0.8550     0.0030 c3         1 K5G       0.140400
     10 C07          0.7250    -0.0120     0.3520 c3         1 K5G      -0.071400
     11 C08          1.9980    -0.8360     0.2520 c3         1 K5G      -0.155400
     12 C09          3.2400    -0.0520     0.6190 c          1 K5G       0.677100
     13 O10          3.2000     1.0170     1.2040 o          1 K5G      -0.580100
     14 N11          4.3990    -0.6600     0.2830 ns         1 K5G      -0.562900
     15 C12          5.6840    -0.0860     0.5260 c5         1 K5G      -0.000300
     16 C13          6.7640    -1.0900     0.8950 c5         1 K5G      -0.090400
     17 C14          8.0890    -0.3460     0.7970 c5         1 K5G       0.011700
     18 S15          7.9680     0.6860    -0.7020 ss         1 K5G      -0.307700
     19 C16          6.2030     0.6870    -0.6890 c          1 K5G       0.582700
     20 O17          5.5220     1.2220    -1.5180 o          1 K5G      -0.457100
     21 H1          -3.7460     1.3200     0.3980 ha         1 K5G       0.163000
     22 H2          -2.2460    -2.5510    -0.7140 ha         1 K5G       0.136000
     23 H3          -4.5270    -3.2960    -1.1640 ha         1 K5G       0.133000
     24 H4          -6.4520    -1.7910    -0.8510 ha         1 K5G       0.150000
     25 H5          -0.5490    -1.7250     0.6670 h1         1 K5G       0.032700
     26 H6          -0.4080    -1.2260    -1.0250 h1         1 K5G       0.032700
     27 H7           0.7770     0.8430    -0.3260 hc         1 K5G       0.075700
     28 H8           1.9450    -1.6990     0.9250 hc         1 K5G       0.058200
     29 H9           4.3610    -1.5060    -0.2650 hn         1 K5G       0.316500
     30 H10          5.5900     0.6510     1.3320 h1         1 K5G       0.114700
     31 H11          6.6160    -1.4850     1.8990 hc         1 K5G       0.067700
     32 H12          6.7550    -1.9270     0.1920 hc         1 K5G       0.067700
     33 H13          8.2510     0.2990     1.6590 h1         1 K5G       0.081200
     34 H14          8.9400    -1.0160     0.6940 h1         1 K5G       0.081200
     35 H15          0.6130     0.3810     1.3640 hc         1 K5G       0.075700
     36 H16          2.1130    -1.2500    -0.7540 hc         1 K5G       0.058200
@<TRIPOS>BOND
     1     1     2 1   
     2     2     3 ar  
     3     2     7 ar  
     4     3     4 ar  
     5     3    21 1   
     6     4     5 ar  
     7     4     8 1   
     8     5     6 ar  
     9     5    22 1   
    10     6     7 ar  
    11     6    23 1   
    12     7    24 1   
    13     8     9 1   
    14     9    10 1   
    15     9    25 1   
    16     9    26 1   
    17    10    11 1   
    18    10    27 1   
    19    10    35 1   
    20    11    12 1   
    21    11    28 1   
    22    11    36 1   
    23    12    13 2   
    24    12    14 1   
    25    14    15 1   
    26    14    29 1   
    27    15    16 1   
    28    15    19 1   
    29    15    30 1   
    30    16    17 1   
    31    16    31 1   
    32    16    32 1   
    33    17    18 1   
    34    17    33 1   
    35    17    34 1   
    36    18    19 1   
    37    19    20 2   
@<TRIPOS>SUBSTRUCTURE
     1 K5G         1 TEMP              0 ****  ****    0 ROOT
