@<TRIPOS>MOLECULE
K5H
   24    23     1     0     0
SMALL
bcc


@<TRIPOS>ATOM
      1 N            3.4430     1.5290    -0.4490 n8         1 K5H      -0.886800
      2 CA           2.9490     0.4500     0.3850 c3         1 K5H       0.014500
      3 C            3.9720    -0.6580     0.7570 c          1 K5H       0.907600
      4 O            5.0980    -0.5990     0.2290 o          1 K5H      -0.825300
      5 C03          1.7560    -0.2060    -0.2970 c3         1 K5H       0.060700
      6 C05         -0.9320     0.0710    -1.0200 c3         1 K5H      -0.093300
      7 C06         -1.8870     0.1960     0.1790 c3         1 K5H       0.323600
      8 C09         -2.9770    -0.8890     0.1200 c3         1 K5H       0.644900
      9 F10         -3.8270    -0.7880     1.1430 f          1 K5H      -0.235967
     10 F11         -3.6930    -0.7820    -1.0060 f          1 K5H      -0.235967
     11 F12         -2.4630    -2.1220     0.1480 f          1 K5H      -0.235967
     12 O07         -1.2570    -0.0040     1.3870 oh         1 K5H      -0.587800
     13 O08         -2.5110     1.4430     0.2100 oh         1 K5H      -0.587800
     14 S04          0.5570     1.0830    -0.7760 ss         1 K5H      -0.337200
     15 H1           4.1370     2.0540     0.0690 hn         1 K5H       0.333800
     16 H011         3.9550     1.1250    -1.2250 hn         1 K5H       0.333800
     17 H021         2.5880     0.8950     1.3190 h1         1 K5H       0.049700
     18 H031         2.0680    -0.7410    -1.1980 h1         1 K5H       0.066700
     19 H032         1.2790    -0.9180     0.3740 h1         1 K5H       0.066700
     20 H052        -0.6260    -0.9630    -1.1820 h1         1 K5H       0.081700
     21 H051        -1.4250     0.4030    -1.9350 h1         1 K5H       0.081700
     22 H071        -0.4740     0.5700     1.4040 ho         1 K5H       0.442500
     23 H081        -2.6390     1.7860    -0.6820 ho         1 K5H       0.442500
     24 OXT          3.5620    -1.5220     1.5580 o          1 K5H      -0.825300
@<TRIPOS>BOND
     1     1     2 1   
     2     1    15 1   
     3     1    16 1   
     4     2     3 1   
     5     2     5 1   
     6     2    17 1   
     7     3     4 1   
     8     3    24 1   
     9     5    14 1   
    10     5    18 1   
    11     5    19 1   
    12     6     7 1   
    13     6    14 1   
    14     6    20 1   
    15     6    21 1   
    16     7     8 1   
    17     7    12 1   
    18     7    13 1   
    19     8     9 1   
    20     8    10 1   
    21     8    11 1   
    22    12    22 1   
    23    13    23 1   
@<TRIPOS>SUBSTRUCTURE
     1 K5H         1 TEMP              0 ****  ****    0 ROOT
