@<TRIPOS>MOLECULE
K5H
   24    23     1     0     0
SMALL
No Charge or Current Charge


@<TRIPOS>ATOM
      1 N            3.4020     1.8500    -0.3240 n8         1 K5H      -0.997200
      2 CA           3.2500     0.5030     0.3600 c3         1 K5H       0.014500
      3 C            4.4600    -0.4950     0.1840 c          1 K5H       0.697000
      4 O            4.7680    -0.8420    -0.9490 o          1 K5H      -0.720000
      5 C03          1.9390    -0.2240    -0.0490 c3         1 K5H       0.108600
      6 C05         -0.9010    -0.4320    -0.1650 c3         1 K5H      -0.045400
      7 C06         -2.3190     0.1240     0.1200 c3         1 K5H       0.370000
      8 C09         -3.4690    -0.8010    -0.4470 c3         1 K5H       0.281000
      9 F10         -4.6980    -0.2920    -0.1830 f          1 K5H      -0.114667
     10 F11         -3.3670    -0.9440    -1.7910 f          1 K5H      -0.114667
     11 F12         -3.4160    -2.0410     0.0980 f          1 K5H      -0.114667
     12 O07         -2.4410     0.3040     1.5230 oh         1 K5H      -0.650000
     13 O08         -2.3890     1.4330    -0.4230 oh         1 K5H      -0.650000
     14 S04          0.4200     0.6920     0.5080 ss         1 K5H      -0.433000
     15 H1           4.2610     2.3030     0.0110 hn         1 K5H       0.389000
     16 H011         3.5950     1.6920    -1.3210 hn         1 K5H       0.389000
     17 H021         3.1780     0.7020     1.4380 h1         1 K5H       0.049700
     18 H031         1.9090    -0.3530    -1.1390 h1         1 K5H       0.066700
     19 H032         1.9240    -1.2210     0.4090 h1         1 K5H       0.066700
     20 H052        -0.7970    -1.4270     0.2890 h1         1 K5H       0.081700
     21 H051        -0.7630    -0.5440    -1.2490 h1         1 K5H       0.081700
     22 H071        -1.5260     0.4760     1.8330 ho         1 K5H       0.481500
     23 H081        -1.4640     1.7610    -0.3970 ho         1 K5H       0.481500
     24 OXT          5.0980    -0.8130     1.1780 o          1 K5H      -0.720000
@<TRIPOS>BOND
     1     1     2 1   
     2     1    15 1   
     3     1    16 1   
     4     2     3 1   
     5     2     5 1   
     6     2    17 1   
     7     3     4 1   
     8     3    24 1   
     9     5    14 1   
    10     5    18 1   
    11     5    19 1   
    12     6     7 1   
    13     6    14 1   
    14     6    20 1   
    15     6    21 1   
    16     7     8 1   
    17     7    12 1   
    18     7    13 1   
    19     8     9 1   
    20     8    10 1   
    21     8    11 1   
    22    12    22 1   
    23    13    23 1   
@<TRIPOS>SUBSTRUCTURE
     1 K5H         1 TEMP              0 ****  ****    0 ROOT
