@<TRIPOS>MOLECULE
K5J
   45    47     1     0     0
SMALL
abcg2


@<TRIPOS>ATOM
      1 C10         -2.7730    -0.6130    -0.0710 ca         1 K5J       0.134100
      2 C15         -6.9630     1.0940    -1.5300 c3         1 K5J      -0.336100
      3 C17         -5.3880    -1.6190     0.1030 ca         1 K5J      -0.062000
      4 C21          6.8650    -1.0520    -0.8470 c5         1 K5J      -0.061400
      5 C22          8.1340    -0.6580    -0.1150 cx         1 K5J      -0.107700
      6 C24          8.4590     0.7830    -0.0450 cx         1 K5J      -0.089400
      7 C02          6.2850     0.2200     1.1240 c          1 K5J       0.579100
      8 C03          5.7800    -0.1300    -0.2840 c5         1 K5J      -0.005300
      9 N04          4.4690    -0.7030    -0.2830 ns         1 K5J      -0.492900
     10 C05          3.3380     0.0090    -0.4590 c          1 K5J       0.611100
     11 C06          2.0710    -0.8170    -0.3770 c3         1 K5J      -0.157400
     12 C07          0.8080     0.0230    -0.2850 c3         1 K5J      -0.069400
     13 C08         -0.4110    -0.8740    -0.2310 c3         1 K5J       0.162600
     14 O09         -1.5610    -0.0450    -0.1460 os         1 K5J      -0.340100
     15 C11         -3.8560     0.2640     0.0140 ca         1 K5J      -0.056000
     16 C12         -5.1350    -0.2530     0.0960 ca         1 K5J      -0.226500
     17 S13         -6.5050     0.8770     0.1740 sy         1 K5J       1.053500
     18 O14         -6.0250     2.1580     0.6880 o          1 K5J      -0.520500
     19 O16         -7.6090     0.2130     0.8650 o          1 K5J      -0.520500
     20 C18         -4.3030    -2.4750     0.0160 ca         1 K5J      -0.088000
     21 C19         -3.0050    -1.9880    -0.0710 ca         1 K5J      -0.154000
     22 O20          3.3360     1.2050    -0.7020 o          1 K5J      -0.587100
     23 C23          7.7560     0.1250     1.1280 cx         1 K5J      -0.258700
     24 H151        -6.1210     1.5100    -2.0790 h1         1 K5J       0.102700
     25 H152        -7.2540     0.1360    -1.9520 h1         1 K5J       0.102700
     26 H153        -7.8050     1.7860    -1.5540 h1         1 K5J       0.102700
     27 H171        -6.3930    -2.0080     0.1760 ha         1 K5J       0.139000
     28 H212         6.6260    -2.0920    -0.6140 hc         1 K5J       0.059200
     29 H221         8.9420    -1.3760    -0.0620 hc         1 K5J       0.096700
     30 H241         9.4890     1.0560     0.1430 hc         1 K5J       0.081700
     31 H242         7.9190     1.4970    -0.6560 hc         1 K5J       0.081700
     32 H031         5.7420     0.8000    -0.8580 h1         1 K5J       0.105700
     33 H041         4.3870    -1.6710    -0.0150 hn         1 K5J       0.311500
     34 H062         2.0340    -1.4580    -1.2650 hc         1 K5J       0.056700
     35 H061         2.1400    -1.4980     0.4760 hc         1 K5J       0.056700
     36 H071         0.8380     0.6500     0.6090 hc         1 K5J       0.076200
     37 H072         0.7330     0.6880    -1.1470 hc         1 K5J       0.076200
     38 H081        -0.4610    -1.5030    -1.1280 h1         1 K5J       0.032200
     39 H082        -0.3570    -1.5390     0.6380 h1         1 K5J       0.032200
     40 H111        -3.6790     1.3320     0.0160 ha         1 K5J       0.153000
     41 H181        -4.4630    -3.5450     0.0200 ha         1 K5J       0.118000
     42 H191        -2.1900    -2.6950    -0.1340 ha         1 K5J       0.119000
     43 H231         8.2820     0.0320     2.0690 hc         1 K5J       0.116700
     44 H211         6.9590    -0.9670    -1.9300 hc         1 K5J       0.059200
     45 O01          5.5690     0.4520     2.0660 o          1 K5J      -0.488100
@<TRIPOS>BOND
     1     1    14 1   
     2     1    15 ar  
     3     1    21 ar  
     4     2    17 1   
     5     2    24 1   
     6     2    25 1   
     7     2    26 1   
     8     3    16 ar  
     9     3    20 ar  
    10     3    27 1   
    11     4     5 1   
    12     4     8 1   
    13     4    28 1   
    14     4    44 1   
    15     5     6 1   
    16     5    23 1   
    17     5    29 1   
    18     6    23 1   
    19     6    30 1   
    20     6    31 1   
    21     7     8 1   
    22     7    23 1   
    23     7    45 2   
    24     8     9 1   
    25     8    32 1   
    26     9    10 1   
    27     9    33 1   
    28    10    11 1   
    29    10    22 2   
    30    11    12 1   
    31    11    34 1   
    32    11    35 1   
    33    12    13 1   
    34    12    36 1   
    35    12    37 1   
    36    13    14 1   
    37    13    38 1   
    38    13    39 1   
    39    15    16 ar  
    40    15    40 1   
    41    16    17 1   
    42    17    18 2   
    43    17    19 2   
    44    20    21 ar  
    45    20    41 1   
    46    21    42 1   
    47    23    43 1   
@<TRIPOS>SUBSTRUCTURE
     1 K5J         1 TEMP              0 ****  ****    0 ROOT
