@<TRIPOS>MOLECULE
K5J
   45    47     1     0     0
SMALL
No Charge or Current Charge


@<TRIPOS>ATOM
      1 C10         -2.7210    -0.7880    -0.1460 ca         1 K5J       0.134100
      2 C15         -6.8680     1.4120    -1.2690 c3         1 K5J      -0.336100
      3 C17         -5.4150    -1.5410     0.2250 ca         1 K5J      -0.062000
      4 C21          6.6220    -0.6130    -0.8090 c5         1 K5J      -0.061400
      5 C22          7.9450    -0.4670    -0.0160 cx         1 K5J      -0.107700
      6 C24          8.4360     0.9440     0.2270 cx         1 K5J      -0.089400
      7 C02          6.1530     0.4860     1.3930 c          1 K5J       0.579100
      8 C03          5.5910     0.2980    -0.0400 c5         1 K5J      -0.005300
      9 N04          4.3320    -0.4860     0.0390 ns         1 K5J      -0.492900
     10 C05          3.4760    -0.4800    -1.0470 c          1 K5J       0.611100
     11 C06          2.2180    -1.3370    -0.8770 c3         1 K5J      -0.157400
     12 C07          0.9570    -0.4600    -0.6740 c3         1 K5J      -0.069400
     13 C08         -0.3320    -1.2870    -0.5060 c3         1 K5J       0.162600
     14 O09         -1.4190    -0.3650    -0.3250 os         1 K5J      -0.340100
     15 C11         -3.7140     0.1940     0.0210 ca         1 K5J      -0.056000
     16 C12         -5.0650    -0.1740     0.2100 ca         1 K5J      -0.226500
     17 S13         -6.3350     1.0980     0.4130 sy         1 K5J       1.053500
     18 O14         -5.6990     2.3340     0.8880 o          1 K5J      -0.520500
     19 O16         -7.4860     0.5150     1.1150 o          1 K5J      -0.520500
     20 C18         -4.4240    -2.5240     0.0580 ca         1 K5J      -0.088000
     21 C19         -3.0810    -2.1530    -0.1260 ca         1 K5J      -0.154000
     22 O20          3.7090     0.1390    -2.0760 o          1 K5J      -0.587100
     23 C23          7.6230     0.2190     1.2850 cx         1 K5J      -0.258700
     24 H151        -6.0020     1.7570    -1.8440 h1         1 K5J       0.102700
     25 H152        -7.2590     0.4770    -1.6840 h1         1 K5J       0.102700
     26 H153        -7.6470     2.1800    -1.2430 h1         1 K5J       0.102700
     27 H171        -6.4510    -1.8470     0.3640 ha         1 K5J       0.139000
     28 H212         6.3140    -1.6660    -0.8180 hc         1 K5J       0.059200
     29 H221         8.6840    -1.2680    -0.0290 hc         1 K5J       0.096700
     30 H241         9.4990     1.0810     0.4130 hc         1 K5J       0.081700
     31 H242         7.9730     1.7590    -0.3260 hc         1 K5J       0.081700
     32 H031         5.4820     1.2900    -0.4980 h1         1 K5J       0.105700
     33 H041         4.0470    -1.0240     0.8510 hn         1 K5J       0.311500
     34 H062         2.0800    -1.9390    -1.7830 hc         1 K5J       0.056700
     35 H061         2.3260    -1.9970    -0.0080 hc         1 K5J       0.056700
     36 H071         1.0920     0.1730     0.2120 hc         1 K5J       0.076200
     37 H072         0.8380     0.2110    -1.5340 hc         1 K5J       0.076200
     38 H081        -0.4910    -1.9050    -1.4000 h1         1 K5J       0.032200
     39 H082        -0.2340    -1.9460     0.3670 h1         1 K5J       0.032200
     40 H111        -3.4240     1.2420     0.0020 ha         1 K5J       0.153000
     41 H181        -4.7000    -3.5760     0.0710 ha         1 K5J       0.118000
     42 H191        -2.3380    -2.9360    -0.2530 ha         1 K5J       0.119000
     43 H231         8.1290    -0.1250     2.1840 hc         1 K5J       0.116700
     44 H211         6.7280    -0.3120    -1.8570 hc         1 K5J       0.059200
     45 O01          5.5570     0.7370     2.4330 o          1 K5J      -0.488100
@<TRIPOS>BOND
     1     1    14 1   
     2     1    15 ar  
     3     1    21 ar  
     4     2    17 1   
     5     2    24 1   
     6     2    25 1   
     7     2    26 1   
     8     3    16 ar  
     9     3    20 ar  
    10     3    27 1   
    11     4     5 1   
    12     4     8 1   
    13     4    28 1   
    14     4    44 1   
    15     5     6 1   
    16     5    23 1   
    17     5    29 1   
    18     6    23 1   
    19     6    30 1   
    20     6    31 1   
    21     7     8 1   
    22     7    23 1   
    23     7    45 2   
    24     8     9 1   
    25     8    32 1   
    26     9    10 1   
    27     9    33 1   
    28    10    11 1   
    29    10    22 2   
    30    11    12 1   
    31    11    34 1   
    32    11    35 1   
    33    12    13 1   
    34    12    36 1   
    35    12    37 1   
    36    13    14 1   
    37    13    38 1   
    38    13    39 1   
    39    15    16 ar  
    40    15    40 1   
    41    16    17 1   
    42    17    18 2   
    43    17    19 2   
    44    20    21 ar  
    45    20    41 1   
    46    21    42 1   
    47    23    43 1   
@<TRIPOS>SUBSTRUCTURE
     1 K5J         1 TEMP              0 ****  ****    0 ROOT
