@<TRIPOS>MOLECULE
K5K
   51    53     1     0     0
SMALL
No Charge or Current Charge


@<TRIPOS>ATOM
      1 C4           4.1800    -1.5100    -0.0370 ca         1 K5K       0.177000
      2 C5           3.7500    -0.2020    -0.3010 ca         1 K5K      -0.106800
      3 C6           4.5880     0.7590    -0.7870 ca         1 K5K      -0.031200
      4 C8           2.5270     1.7770    -0.5350 cc         1 K5K      -0.126300
      5 C10          1.4030     2.7570    -0.4950 c          1 K5K       0.630300
      6 N12          0.2120     2.2390    -0.0450 ns         1 K5K      -0.477900
      7 C17         -0.9480     3.9730     1.3690 c3         1 K5K       0.147600
      8 C20         -4.4050     1.4040    -0.7210 ca         1 K5K      -0.022500
      9 C21         -4.4880     0.3640     0.2260 ca         1 K5K      -0.243500
     10 C22         -3.4380     0.1790     1.1490 ca         1 K5K      -0.022500
     11 C1           5.5370    -1.8250    -0.2900 ca         1 K5K       0.086000
     12 C16         -1.0200     3.0110     0.1440 c3         1 K5K       0.165000
     13 C18         -2.2350     2.0800     0.1850 ca         1 K5K      -0.079300
     14 C19         -3.2860     2.2550    -0.7380 ca         1 K5K      -0.122000
     15 C2           6.4220    -0.8280    -0.7910 ca         1 K5K      -0.042300
     16 C23         -2.3220     1.0320     1.1260 ca         1 K5K      -0.122000
     17 C27         -5.4210    -2.0340    -0.8640 c3         1 K5K      -0.407400
     18 C29         -6.5730    -2.9880    -0.8950 c          1 K5K       0.761000
     19 C3           5.9410     0.4800    -1.0410 ca         1 K5K      -0.120000
     20 C9           2.4660     0.4360    -0.1460 cd         1 K5K      -0.189200
     21 N7           3.8730     1.9440    -0.9450 na         1 K5K      -0.048700
     22 O11          1.5050     3.9280    -0.8340 o          1 K5K      -0.621100
     23 O26         -6.0330    -1.3260     1.5850 o          1 K5K      -0.533500
     24 O28         -7.0500    -0.0370    -0.3790 o          1 K5K      -0.533500
     25 O30         -6.5310    -3.9500    -0.1460 o          1 K5K      -0.693000
     26 O31         -7.3840    -2.8660    -1.7990 o          1 K5K      -0.693000
     27 Cl1          3.0460    -2.7080     0.5920 cl         1 K5K      -0.168000
     28 Cl2          6.1320    -3.4620     0.0260 cl         1 K5K      -0.191000
     29 H1           0.2070     1.2680     0.2260 hn         1 K5K       0.335500
     30 H2           4.9850     3.7160    -0.6600 h1         1 K5K       0.057367
     31 H3           5.2630     2.8990    -2.2280 h1         1 K5K       0.057367
     32 H4           3.7590     3.8020    -1.9600 h1         1 K5K       0.057367
     33 H5          -0.2380     4.7780     1.1390 h1         1 K5K       0.031700
     34 H6          -1.9320     4.4410     1.5090 h1         1 K5K       0.031700
     35 H7          -5.2020     1.5580    -1.4470 ha         1 K5K       0.139000
     36 H8          -3.4810    -0.6230     1.8830 ha         1 K5K       0.139000
     37 H9           7.9840    -1.9480    -1.8090 hc         1 K5K       0.047367
     38 H10          8.4320    -0.2770    -1.4460 hc         1 K5K       0.047367
     39 H11          8.3960    -1.4760    -0.1490 hc         1 K5K       0.047367
     40 H12         -1.1330     3.6510    -0.7430 h1         1 K5K       0.074700
     41 H13         -3.2380     3.0520    -1.4770 ha         1 K5K       0.109000
     42 H14         -1.5230     0.8760     1.8460 ha         1 K5K       0.109000
     43 H15         -4.5240    -2.5200    -0.4690 h1         1 K5K       0.075200
     44 H16         -5.2410    -1.6090    -1.8560 h1         1 K5K       0.075200
     45 H17          6.6090     1.2500    -1.4200 ha         1 K5K       0.119000
     46 H18          1.5850    -0.0740     0.2350 ha         1 K5K       0.222000
     47 H19         -0.5170     3.9710     3.2890 ho         1 K5K       0.442000
     48 C15          4.5080     3.1640    -1.4780 c3         1 K5K       0.066900
     49 C14          7.8880    -1.1490    -1.0640 c3         1 K5K      -0.045800
     50 O25         -0.5380     3.2970     2.5740 oh         1 K5K      -0.655000
     51 S24         -5.9180    -0.7370     0.2440 sy         1 K5K       1.045500
@<TRIPOS>BOND
     1     1     2 ar  
     2     1    11 ar  
     3     1    27 1   
     4     2     3 ar  
     5     2    20 1   
     6     3    19 ar  
     7     3    21 1   
     8     4     5 1   
     9     4    20 2   
    10     4    21 1   
    11     5     6 1   
    12     5    22 2   
    13     6    12 1   
    14     6    29 1   
    15     7    12 1   
    16     7    33 1   
    17     7    34 1   
    18     7    50 1   
    19     8     9 ar  
    20     8    14 ar  
    21     8    35 1   
    22     9    10 ar  
    23     9    51 1   
    24    10    16 ar  
    25    10    36 1   
    26    11    15 ar  
    27    11    28 1   
    28    12    13 1   
    29    12    40 1   
    30    13    14 ar  
    31    13    16 ar  
    32    14    41 1   
    33    15    19 ar  
    34    15    49 1   
    35    16    42 1   
    36    17    18 1   
    37    17    43 1   
    38    17    44 1   
    39    17    51 1   
    40    18    25 1   
    41    18    26 1   
    42    19    45 1   
    43    20    46 1   
    44    21    48 1   
    45    23    51 2   
    46    24    51 2   
    47    30    48 1   
    48    31    48 1   
    49    32    48 1   
    50    37    49 1   
    51    38    49 1   
    52    39    49 1   
    53    47    50 1   
@<TRIPOS>SUBSTRUCTURE
     1 K5K         1 TEMP              0 ****  ****    0 ROOT
