@<TRIPOS>MOLECULE
K5K
   51    53     1     0     0
SMALL
abcg2


@<TRIPOS>ATOM
      1 C4           4.8170    -1.0160     0.9600 ca         1 K5K       0.177000
      2 C5           4.0480     0.0030     0.3920 ca         1 K5K      -0.106800
      3 C6           4.5510     0.6820    -0.7340 ca         1 K5K      -0.031200
      4 C8           2.5740     1.5570    -0.2360 cc         1 K5K      -0.126300
      5 C10          1.4460     2.5150    -0.2850 c          1 K5K       0.630300
      6 N12          0.2800     2.0180     0.1580 ns         1 K5K      -0.477900
      7 C17         -0.8820     3.6910     1.5580 c3         1 K5K       0.147600
      8 C20         -4.3870     1.6370    -0.6260 ca         1 K5K      -0.022500
      9 C21         -4.4920     0.4780     0.1280 ca         1 K5K      -0.243500
     10 C22         -3.4480     0.0600     0.9410 ca         1 K5K      -0.022500
     11 C1           6.0400    -1.3300     0.4060 ca         1 K5K       0.086000
     12 C16         -0.9130     2.8330     0.2940 c3         1 K5K       0.165000
     13 C18         -2.1530     1.9740     0.2380 ca         1 K5K      -0.079300
     14 C19         -3.2150     2.3750    -0.5670 ca         1 K5K      -0.122000
     15 C2           6.5430    -0.6460    -0.7270 ca         1 K5K      -0.042300
     16 C23         -2.2860     0.8120     0.9970 ca         1 K5K      -0.122000
     17 C27         -5.5750    -1.6710    -1.2630 c3         1 K5K      -0.407400
     18 C29         -6.6930    -2.7240    -1.4940 c          1 K5K       0.761000
     19 C3           5.7880     0.3610    -1.2950 ca         1 K5K      -0.120000
     20 C9           2.7860     0.5720     0.6940 cd         1 K5K      -0.189200
     21 N7           3.6370     1.6240    -1.1030 na         1 K5K      -0.048700
     22 O11          1.5900     3.6660    -0.6720 o          1 K5K      -0.621100
     23 O26         -6.1070    -1.2170     1.3000 o          1 K5K      -0.533500
     24 O28         -7.0530     0.3780    -0.4090 o          1 K5K      -0.533500
     25 O30         -6.3810    -3.6170    -2.2940 o          1 K5K      -0.693000
     26 O31         -7.7560    -2.5590    -0.8800 o          1 K5K      -0.693000
     27 CL1          4.2050    -1.8480     2.3350 cl         1 K5K      -0.168000
     28 CL2          6.9900    -2.5910     1.1080 cl         1 K5K      -0.191000
     29 H1           0.2230     1.0340     0.3620 hn         1 K5K       0.335500
     30 H2           4.1670     3.4730    -1.9630 h1         1 K5K       0.057367
     31 H3           4.4700     2.0390    -2.9550 h1         1 K5K       0.057367
     32 H4           2.8290     2.6250    -2.7550 h1         1 K5K       0.057367
     33 H5          -0.0250     4.3700     1.4920 h1         1 K5K       0.031700
     34 H6          -1.7870     4.3110     1.5600 h1         1 K5K       0.031700
     35 H7          -5.1990     1.9670    -1.2590 ha         1 K5K       0.139000
     36 H8          -3.5320    -0.8380     1.5370 ha         1 K5K       0.139000
     37 H9           7.9120    -2.0500    -1.6190 hc         1 K5K       0.047367
     38 H10          8.1050    -0.3860    -2.1670 hc         1 K5K       0.047367
     39 H11          8.6800    -0.8680    -0.5730 hc         1 K5K       0.047367
     40 H12         -0.9480     3.5280    -0.5480 h1         1 K5K       0.074700
     41 H13         -3.1290     3.2760    -1.1620 ha         1 K5K       0.109000
     42 H14         -1.4890     0.4780     1.6480 ha         1 K5K       0.109000
     43 H15         -4.6320    -2.1460    -0.9860 h1         1 K5K       0.075200
     44 H16         -5.3960    -1.0920    -2.1720 h1         1 K5K       0.075200
     45 H17          6.1730     0.8900    -2.1570 ha         1 K5K       0.119000
     46 H18          2.1400     0.3170     1.5180 ha         1 K5K       0.222000
     47 H19         -0.8250     3.4050     3.4700 ho         1 K5K       0.442000
     48 C15          3.7820     2.4970    -2.2510 c3         1 K5K       0.066900
     49 C14          7.8800    -1.0060    -1.3010 c3         1 K5K      -0.045800
     50 O25         -0.8030     2.8550     2.6820 oh         1 K5K      -0.655000
     51 S24         -5.9730    -0.5060     0.0290 sy         1 K5K       1.045500
@<TRIPOS>BOND
     1     1     2 ar  
     2     1    11 ar  
     3     1    27 1   
     4     2     3 ar  
     5     2    20 1   
     6     3    19 ar  
     7     3    21 1   
     8     4     5 1   
     9     4    20 2   
    10     4    21 1   
    11     5     6 1   
    12     5    22 2   
    13     6    12 1   
    14     6    29 1   
    15     7    12 1   
    16     7    33 1   
    17     7    34 1   
    18     7    50 1   
    19     8     9 ar  
    20     8    14 ar  
    21     8    35 1   
    22     9    10 ar  
    23     9    51 1   
    24    10    16 ar  
    25    10    36 1   
    26    11    15 ar  
    27    11    28 1   
    28    12    13 1   
    29    12    40 1   
    30    13    14 ar  
    31    13    16 ar  
    32    14    41 1   
    33    15    19 ar  
    34    15    49 1   
    35    16    42 1   
    36    17    18 1   
    37    17    43 1   
    38    17    44 1   
    39    17    51 1   
    40    18    25 1   
    41    18    26 1   
    42    19    45 1   
    43    20    46 1   
    44    21    48 1   
    45    23    51 2   
    46    24    51 2   
    47    30    48 1   
    48    31    48 1   
    49    32    48 1   
    50    37    49 1   
    51    38    49 1   
    52    39    49 1   
    53    47    50 1   
@<TRIPOS>SUBSTRUCTURE
     1 K5K         1 TEMP              0 ****  ****    0 ROOT
