@<TRIPOS>MOLECULE
K5L
   20    19     1     0     0
SMALL
abcg2


@<TRIPOS>ATOM
      1 O           21.2820    25.9920    62.2920 o          1 K5L      -0.740500
      2 C           21.9290    27.0360    62.4930 c          1 K5L       0.725000
      3 CA          23.1010    26.9600    63.5080 c3         1 K5L      -0.009500
      4 N           23.5100    25.5910    63.7610 n8         1 K5L      -0.996200
      5 CB          22.6600    27.7250    64.7580 c3         1 K5L       0.139600
      6 OAI         23.6640    27.7230    65.7800 os         1 K5L      -0.464100
      7 CAK         24.6110    28.6590    65.7490 c          1 K5L       0.629100
      8 OAC         24.6910    29.4970    64.8830 o          1 K5L      -0.532000
      9 CAG         25.5240    28.5560    66.9280 c3         1 K5L      -0.291400
     10 CAJ         24.9300    29.3040    68.1600 c          1 K5L       0.737000
     11 OAE         25.5640    29.1680    69.2180 o          1 K5L      -0.732500
     12 OAB         23.8960    29.9650    67.9600 o          1 K5L      -0.732500
     13 H2          23.9490    27.4960    63.0690 h1         1 K5L       0.060700
     14 H3          24.1240    25.5520    64.5660 hn         1 K5L       0.377000
     15 H4          22.6920    25.0400    63.9890 hn         1 K5L       0.377000
     16 H6          22.3720    28.7470    64.5100 h1         1 K5L       0.055700
     17 H7          21.8010    27.2260    65.2130 h1         1 K5L       0.055700
     18 H8          25.7140    27.5140    67.1910 hc         1 K5L       0.041700
     19 H9          26.4850    29.0100    66.6760 hc         1 K5L       0.041700
     20 OXT         21.7210    28.1620    62.0000 o          1 K5L      -0.740500
@<TRIPOS>BOND
     1     1     2 1   
     2     2     3 1   
     3     2    20 1   
     4     3     4 1   
     5     3     5 1   
     6     3    13 1   
     7     4    14 1   
     8     4    15 1   
     9     5     6 1   
    10     5    16 1   
    11     5    17 1   
    12     6     7 1   
    13     7     8 2   
    14     7     9 1   
    15     9    10 1   
    16     9    18 1   
    17     9    19 1   
    18    10    11 1   
    19    10    12 1   
@<TRIPOS>SUBSTRUCTURE
     1 K5L         1 TEMP              0 ****  ****    0 ROOT
