@<TRIPOS>MOLECULE
K5L
   20    19     1     0     0
SMALL
No Charge or Current Charge


@<TRIPOS>ATOM
      1 O           21.1010    26.1320    62.5110 o          1 K5L      -0.740500
      2 C           21.9050    27.0550    62.4630 c          1 K5L       0.725000
      3 CA          23.0670    27.0980    63.5300 c3         1 K5L      -0.009500
      4 N           24.0570    25.9450    63.5080 n8         1 K5L      -0.996200
      5 CB          22.4480    27.2870    64.9470 c3         1 K5L       0.139600
      6 OAI         23.5040    27.4040    65.9300 os         1 K5L      -0.464100
      7 CAK         24.1390    28.6120    66.0960 c          1 K5L       0.629100
      8 OAC         23.9880    29.5620    65.3390 o          1 K5L      -0.532000
      9 CAG         25.3520    28.4530    66.9900 c3         1 K5L      -0.291400
     10 CAJ         25.3210    29.6290    67.9370 c          1 K5L       0.737000
     11 OAE         24.6690    29.5130    68.9630 o          1 K5L      -0.732500
     12 OAB         25.9130    30.6480    67.6200 o          1 K5L      -0.732500
     13 H2          23.6400    28.0070    63.3060 h1         1 K5L       0.060700
     14 H3          24.6200    25.9950    64.3660 hn         1 K5L       0.377000
     15 H4          23.5380    25.0640    63.6120 hn         1 K5L       0.377000
     16 H6          21.7920    28.1680    64.9600 h1         1 K5L       0.055700
     17 H7          21.8250    26.4130    65.1770 h1         1 K5L       0.055700
     18 H8          25.2350    27.5050    67.5290 hc         1 K5L       0.041700
     19 H9          26.2250    28.5160    66.3300 hc         1 K5L       0.041700
     20 OXT         21.8830    27.9150    61.5920 o          1 K5L      -0.740500
@<TRIPOS>BOND
     1     1     2 1   
     2     2     3 1   
     3     2    20 1   
     4     3     4 1   
     5     3     5 1   
     6     3    13 1   
     7     4    14 1   
     8     4    15 1   
     9     5     6 1   
    10     5    16 1   
    11     5    17 1   
    12     6     7 1   
    13     7     8 2   
    14     7     9 1   
    15     9    10 1   
    16     9    18 1   
    17     9    19 1   
    18    10    11 1   
    19    10    12 1   
@<TRIPOS>SUBSTRUCTURE
     1 K5L         1 TEMP              0 ****  ****    0 ROOT
