@<TRIPOS>MOLECULE
K5M
   45    47     1     0     0
SMALL
abcg2


@<TRIPOS>ATOM
      1 C10          2.7730     0.5780    -0.1260 ca         1 K5M       0.133100
      2 C13          5.3600     1.6310    -0.3950 ca         1 K5M      -0.061000
      3 C21         -6.7500     0.7580     1.2590 c5         1 K5M      -0.060400
      4 C22         -8.1090     0.3670     0.7060 cx         1 K5M      -0.107700
      5 C24         -8.3990    -1.0770     0.5820 cx         1 K5M      -0.089400
      6 C02         -6.4540    -0.3450    -0.8670 c          1 K5M       0.579100
      7 C03         -5.7470    -0.0880     0.4710 c5         1 K5M      -0.006300
      8 C05         -3.3200    -0.1990     0.1890 c          1 K5M       0.609100
      9 C06         -2.0880     0.6420    -0.0810 c3         1 K5M      -0.157400
     10 C07         -0.7920    -0.1310     0.1010 c3         1 K5M      -0.069400
     11 C08          0.3990     0.7660    -0.1610 c3         1 K5M       0.162600
     12 C11          2.9610     1.9170    -0.4690 ca         1 K5M      -0.153000
     13 C12          4.2460     2.4270    -0.5990 ca         1 K5M      -0.088000
     14 C14          5.1510     0.3000    -0.0560 ca         1 K5M      -0.226500
     15 C16          6.7990    -0.6630     1.9860 c3         1 K5M      -0.336100
     16 C19          3.8850    -0.2400     0.0760 ca         1 K5M      -0.057000
     17 C23         -7.9090    -0.3140    -0.6350 cx         1 K5M      -0.258700
     18 N04         -4.4570     0.5130     0.3260 ns         1 K5M      -0.491900
     19 O09          1.5760    -0.0080     0.0250 os         1 K5M      -0.341100
     20 O17          6.1820    -2.1230    -0.1180 o          1 K5M      -0.520500
     21 O18          7.7150    -0.1550    -0.4310 o          1 K5M      -0.520500
     22 O20         -3.2840    -1.4150     0.2860 o          1 K5M      -0.586100
     23 S15          6.5550    -0.7520     0.2270 sy         1 K5M       1.053500
     24 H131         6.3550     2.0370    -0.5040 ha         1 K5M       0.141000
     25 H212        -6.5760     1.8190     1.0630 hc         1 K5M       0.059200
     26 H211        -6.6710     0.6010     2.3350 hc         1 K5M       0.059200
     27 H221        -8.9340     1.0560     0.8310 hc         1 K5M       0.096700
     28 H241        -7.7470    -1.8080     1.0470 hc         1 K5M       0.082200
     29 H242        -9.4360    -1.3790     0.5370 hc         1 K5M       0.082200
     30 H031        -5.6110    -1.0600     0.9550 h1         1 K5M       0.105700
     31 H061        -2.1610     1.0270    -1.1030 hc         1 K5M       0.058200
     32 H062        -2.1070     1.5200     0.5710 hc         1 K5M       0.058200
     33 H071        -0.7320    -0.5260     1.1180 hc         1 K5M       0.075700
     34 H072        -0.7640    -0.9820    -0.5810 hc         1 K5M       0.075700
     35 H081         0.3640     1.1640    -1.1810 h1         1 K5M       0.032700
     36 H082         0.3970     1.6190     0.5280 h1         1 K5M       0.032700
     37 H111         2.1200     2.5750    -0.6380 ha         1 K5M       0.119000
     38 H121         4.3750     3.4670    -0.8680 ha         1 K5M       0.118000
     39 H161         7.6450    -1.3050     2.2300 h1         1 K5M       0.103033
     40 H163         7.0170     0.3650     2.2660 h1         1 K5M       0.103033
     41 H162         5.9050    -1.0140     2.4940 h1         1 K5M       0.103033
     42 H191         3.7390    -1.2820     0.3330 ha         1 K5M       0.150000
     43 H231        -8.5810    -0.1790    -1.4720 hc         1 K5M       0.116700
     44 H041        -4.4210     1.5070     0.1610 hn         1 K5M       0.311500
     45 O01         -5.8880    -0.4690    -1.9250 o          1 K5M      -0.490100
@<TRIPOS>BOND
     1     1    12 ar  
     2     1    16 ar  
     3     1    19 1   
     4     2    13 ar  
     5     2    14 ar  
     6     2    24 1   
     7     3     4 1   
     8     3     7 1   
     9     3    25 1   
    10     3    26 1   
    11     4     5 1   
    12     4    17 1   
    13     4    27 1   
    14     5    17 1   
    15     5    28 1   
    16     5    29 1   
    17     6     7 1   
    18     6    17 1   
    19     6    45 2   
    20     7    18 1   
    21     7    30 1   
    22     8     9 1   
    23     8    18 1   
    24     8    22 2   
    25     9    10 1   
    26     9    31 1   
    27     9    32 1   
    28    10    11 1   
    29    10    33 1   
    30    10    34 1   
    31    11    19 1   
    32    11    35 1   
    33    11    36 1   
    34    12    13 ar  
    35    12    37 1   
    36    13    38 1   
    37    14    16 ar  
    38    14    23 1   
    39    15    23 1   
    40    15    39 1   
    41    15    40 1   
    42    15    41 1   
    43    16    42 1   
    44    17    43 1   
    45    18    44 1   
    46    20    23 2   
    47    21    23 2   
@<TRIPOS>SUBSTRUCTURE
     1 K5M         1 TEMP              0 ****  ****    0 ROOT
