@<TRIPOS>MOLECULE
K5M
   45    47     1     0     0
SMALL
No Charge or Current Charge


@<TRIPOS>ATOM
      1 C10          2.5870     0.5140    -0.3460 ca         1 K5M       0.133100
      2 C13          5.3070     1.2610    -0.2800 ca         1 K5M      -0.061000
      3 C21         -5.4650    -0.9510     0.9420 c5         1 K5M      -0.060400
      4 C22         -6.6500    -0.6950     1.9070 cx         1 K5M      -0.107700
      5 C24         -8.0400    -0.8680     1.3320 cx         1 K5M      -0.089400
      6 C02         -6.7360     1.0690     0.1800 c          1 K5M       0.579100
      7 C03         -5.7580    -0.0320    -0.3060 c5         1 K5M      -0.006300
      8 C05         -3.5570    -0.1210    -1.4160 c          1 K5M       0.609100
      9 C06         -2.2450     0.6110    -1.7150 c3         1 K5M      -0.157400
     10 C07         -1.0710     0.0290    -0.8890 c3         1 K5M      -0.069400
     11 C08          0.2690     0.7370    -1.1620 c3         1 K5M       0.162600
     12 C11          3.0540     1.5690    -1.1610 ca         1 K5M      -0.153000
     13 C12          4.4110     1.9370    -1.1240 ca         1 K5M      -0.088000
     14 C14          4.8500     0.2030     0.5350 ca         1 K5M      -0.226500
     15 C16          5.9040     0.2840     3.1500 c3         1 K5M      -0.336100
     16 C19          3.4860    -0.1620     0.4970 ca         1 K5M      -0.057000
     17 C23         -7.4000     0.5080     1.3990 cx         1 K5M      -0.258700
     18 N04         -4.4620     0.6010    -0.6610 ns         1 K5M      -0.491900
     19 O09          1.2670     0.1110    -0.3390 os         1 K5M      -0.341100
     20 O17          5.4460    -1.9940     1.9390 o          1 K5M      -0.520500
     21 O18          7.3620    -0.5060     1.1210 o          1 K5M      -0.520500
     22 O20         -3.7880    -1.2440    -1.8420 o          1 K5M      -0.586100
     23 S15          5.9940    -0.6660     1.6340 sy         1 K5M       1.053500
     24 H131         6.3540     1.5610    -0.2620 ha         1 K5M       0.141000
     25 H212        -4.5240    -0.6840     1.4370 hc         1 K5M       0.059200
     26 H211        -5.3780    -2.0060     0.6580 hc         1 K5M       0.059200
     27 H221        -6.5230    -0.8320     2.9800 hc         1 K5M       0.096700
     28 H241        -8.1460    -1.3520     0.3630 hc         1 K5M       0.082200
     29 H242        -8.8480    -1.0830     2.0280 hc         1 K5M       0.082200
     30 H031        -6.2390    -0.5790    -1.1280 h1         1 K5M       0.105700
     31 H061        -2.0120     0.4920    -2.7800 hc         1 K5M       0.058200
     32 H062        -2.3450     1.6770    -1.4740 hc         1 K5M       0.058200
     33 H071        -1.3050     0.1100     0.1810 hc         1 K5M       0.075700
     34 H072        -0.9620    -1.0390    -1.1140 hc         1 K5M       0.075700
     35 H081         0.5260     0.6380    -2.2250 h1         1 K5M       0.032700
     36 H082         0.1780     1.8030    -0.9180 h1         1 K5M       0.032700
     37 H111         2.3860     2.1110    -1.8230 ha         1 K5M       0.119000
     38 H121         4.7690     2.7510    -1.7510 ha         1 K5M       0.118000
     39 H161         6.5750    -0.1770     3.8830 h1         1 K5M       0.103033
     40 H163         6.2160     1.3100     2.9300 h1         1 K5M       0.103033
     41 H162         4.8680     0.2630     3.5060 h1         1 K5M       0.103033
     42 H191         3.1120    -0.9710     1.1220 ha         1 K5M       0.150000
     43 H231        -7.7760     1.2210     2.1280 hc         1 K5M       0.116700
     44 H041        -4.1900     1.5360    -0.3760 hn         1 K5M       0.311500
     45 O01         -6.9180     2.1950    -0.2660 o          1 K5M      -0.490100
@<TRIPOS>BOND
     1     1    12 ar  
     2     1    16 ar  
     3     1    19 1   
     4     2    13 ar  
     5     2    14 ar  
     6     2    24 1   
     7     3     4 1   
     8     3     7 1   
     9     3    25 1   
    10     3    26 1   
    11     4     5 1   
    12     4    17 1   
    13     4    27 1   
    14     5    17 1   
    15     5    28 1   
    16     5    29 1   
    17     6     7 1   
    18     6    17 1   
    19     6    45 2   
    20     7    18 1   
    21     7    30 1   
    22     8     9 1   
    23     8    18 1   
    24     8    22 2   
    25     9    10 1   
    26     9    31 1   
    27     9    32 1   
    28    10    11 1   
    29    10    33 1   
    30    10    34 1   
    31    11    19 1   
    32    11    35 1   
    33    11    36 1   
    34    12    13 ar  
    35    12    37 1   
    36    13    38 1   
    37    14    16 ar  
    38    14    23 1   
    39    15    23 1   
    40    15    39 1   
    41    15    40 1   
    42    15    41 1   
    43    16    42 1   
    44    17    43 1   
    45    18    44 1   
    46    20    23 2   
    47    21    23 2   
@<TRIPOS>SUBSTRUCTURE
     1 K5M         1 TEMP              0 ****  ****    0 ROOT
