@<TRIPOS>MOLECULE
K5N
   52    54     1     0     0
SMALL
No Charge or Current Charge


@<TRIPOS>ATOM
      1 N1           5.3230    -0.6750     0.3900 ns         1 K5N      -0.586300
      2 C4           3.2310     0.1350    -0.5880 ca         1 K5N      -0.158600
      3 C5           3.0770     1.1360     0.4030 ca         1 K5N      -0.062000
      4 C6           1.9700     2.0020     0.3810 ca         1 K5N      -0.110500
      5 C7           0.9930     1.8960    -0.6260 ca         1 K5N      -0.066300
      6 C8          -0.2080     2.8400    -0.6320 c3         1 K5N       0.155000
      7 C10         -0.3180     3.6410    -1.9460 c3         1 K5N      -0.108100
      8 C20         -4.9200    -0.2360     0.3110 cc         1 K5N       0.303500
      9 C22         -5.5850     3.1240     1.1870 c3         1 K5N       0.071900
     10 C26         -6.6190    -2.0740     0.5030 ca         1 K5N      -0.090500
     11 C28         -4.7890    -3.9660    -0.4650 ca         1 K5N      -0.114500
     12 C27         -6.0890    -4.3670    -0.1200 ca         1 K5N      -0.104000
     13 C29         -7.0030    -3.4190     0.3640 ca         1 K5N      -0.114500
     14 C30         -4.4020    -2.6220    -0.3260 ca         1 K5N      -0.090500
     15 C3           2.2420     0.0320    -1.5930 ca         1 K5N      -0.062000
     16 C2           1.1370     0.9000    -1.6110 ca         1 K5N      -0.110500
     17 C19         -3.6540     0.3000     0.0040 cc         1 K5N      -0.186000
     18 C25         -5.3110    -1.6520     0.1600 ca         1 K5N      -0.116500
     19 C18         -3.6940     1.6400     0.2800 cd         1 K5N      -0.227600
     20 C11          4.4080    -0.8220    -0.6050 c          1 K5N       0.648700
     21 N21         -5.7520     0.6850     0.7630 nd         1 K5N      -0.508800
     22 N17         -4.9970     1.8500     0.7450 na         1 K5N       0.181800
     23 N9          -1.4340     2.0910    -0.3650 ns         1 K5N      -0.494900
     24 O12          4.5360    -1.6660    -1.4780 o          1 K5N      -0.554100
     25 O24         -2.7110     3.8200     0.3890 o          1 K5N      -0.604100
     26 S13          6.6530    -1.6290     0.7110 s6         1 K5N       1.218800
     27 H1           5.1930     0.0290     1.0940 hn         1 K5N       0.348500
     28 H2           3.8040     1.2610     1.2010 ha         1 K5N       0.128500
     29 H3           1.8740     2.7610     1.1550 ha         1 K5N       0.122000
     30 H4          -0.0760     3.5650     0.1840 h1         1 K5N       0.085700
     31 H5          -0.5210     2.9820    -2.7980 hc         1 K5N       0.047700
     32 H6          -1.1270     4.3780    -1.8850 hc         1 K5N       0.047700
     33 H7           0.6160     4.1800    -2.1420 hc         1 K5N       0.047700
     34 H8          -5.5550     3.8440     0.3610 h1         1 K5N       0.066700
     35 H9          -6.6260     2.9700     1.4950 h1         1 K5N       0.066700
     36 H10         -5.0110     3.5160     2.0340 h1         1 K5N       0.066700
     37 H12         -4.0780    -4.6990    -0.8400 ha         1 K5N       0.113000
     38 H13         -6.3860    -5.4080    -0.2280 ha         1 K5N       0.113000
     39 H14         -8.0110    -3.7260     0.6320 ha         1 K5N       0.113000
     40 H15         -3.3880    -2.3500    -0.6030 ha         1 K5N       0.119000
     41 H16          2.3240    -0.7260    -2.3700 ha         1 K5N       0.128500
     42 H17          0.3920     0.7920    -2.3950 ha         1 K5N       0.122000
     43 H18         -2.8130    -0.2650    -0.3810 ha         1 K5N       0.146000
     44 H22         -1.4360     1.0970    -0.5400 hn         1 K5N       0.323500
     45 C23         -2.6010     2.6330     0.1190 c          1 K5N       0.642700
     46 C14          7.8150    -1.1450    -0.5530 c3         1 K5N      -0.362100
     47 O15          7.1840    -1.1990     2.0080 o          1 K5N      -0.521000
     48 O16          6.2920    -3.0330     0.4920 o          1 K5N      -0.521000
     49 H11         -7.3490    -1.3620     0.8810 ha         1 K5N       0.119000
     50 H19          8.7320    -1.7200    -0.3910 h1         1 K5N       0.110367
     51 H20          7.3640    -1.3790    -1.5220 h1         1 K5N       0.110367
     52 H21          7.9940    -0.0700    -0.4430 h1         1 K5N       0.110367
@<TRIPOS>BOND
     1     1    20 1   
     2     1    26 1   
     3     1    27 1   
     4     2     3 ar  
     5     2    15 ar  
     6     2    20 1   
     7     3     4 ar  
     8     3    28 1   
     9     4     5 ar  
    10     4    29 1   
    11     5     6 1   
    12     5    16 ar  
    13     6     7 1   
    14     6    23 1   
    15     6    30 1   
    16     7    31 1   
    17     7    32 1   
    18     7    33 1   
    19     8    17 1   
    20     8    18 1   
    21     8    21 2   
    22     9    22 1   
    23     9    34 1   
    24     9    35 1   
    25     9    36 1   
    26    10    13 ar  
    27    10    18 ar  
    28    10    49 1   
    29    11    12 ar  
    30    11    14 ar  
    31    11    37 1   
    32    12    13 ar  
    33    12    38 1   
    34    13    39 1   
    35    14    18 ar  
    36    14    40 1   
    37    15    16 ar  
    38    15    41 1   
    39    16    42 1   
    40    17    19 2   
    41    17    43 1   
    42    19    22 1   
    43    19    45 1   
    44    20    24 2   
    45    21    22 1   
    46    23    44 1   
    47    23    45 1   
    48    25    45 2   
    49    26    46 1   
    50    26    47 2   
    51    26    48 2   
    52    46    50 1   
    53    46    51 1   
    54    46    52 1   
@<TRIPOS>SUBSTRUCTURE
     1 K5N         1 TEMP              0 ****  ****    0 ROOT
