@<TRIPOS>MOLECULE
K5N
   52    54     1     0     0
SMALL
bcc


@<TRIPOS>ATOM
      1 N1           5.5450    -0.2810     0.2630 ns         1 K5N      -0.653300
      2 C4           3.2720     0.2430    -0.3780 ca         1 K5N      -0.158600
      3 C5           3.0840     1.1670     0.6460 ca         1 K5N      -0.080000
      4 C6           1.9670     1.9840     0.6500 ca         1 K5N      -0.128500
      5 C7           1.0260     1.9120    -0.3700 ca         1 K5N      -0.066300
      6 C8          -0.1810     2.8200    -0.3610 c3         1 K5N       0.155000
      7 C10         -0.1730     3.7900    -1.5400 c3         1 K5N      -0.108100
      8 C20         -4.8840    -0.3880     0.2060 cc         1 K5N       0.368800
      9 C22         -5.5090     3.0270     0.6230 c3         1 K5N       0.042600
     10 C26         -6.7930    -1.9890     0.1950 ca         1 K5N      -0.108500
     11 C28         -5.0570    -4.1320    -0.0900 ca         1 K5N      -0.132500
     12 C27         -6.4250    -4.3590    -0.0210 ca         1 K5N      -0.122000
     13 C29         -7.2890    -3.2810     0.1220 ca         1 K5N      -0.132500
     14 C30         -4.5590    -2.8400    -0.0170 ca         1 K5N      -0.108500
     15 C3           2.3240     0.1540    -1.3960 ca         1 K5N      -0.080000
     16 C2           1.2220     0.9910    -1.3980 ca         1 K5N      -0.128500
     17 C19         -3.5500     0.0350     0.1140 cc         1 K5N      -0.269300
     18 C25         -5.4180    -1.7500     0.1270 ca         1 K5N      -0.116500
     19 C18         -3.6030     1.4050     0.2630 cd         1 K5N      -0.176900
     20 C11          4.4230    -0.6970    -0.4120 c          1 K5N       0.715700
     21 N21         -5.6820     0.6570     0.3890 nd         1 K5N      -0.508800
     22 N17         -4.9060     1.7240     0.4280 na         1 K5N       0.160400
     23 N9          -1.3910     2.0150    -0.3300 ns         1 K5N      -0.561900
     24 O12          4.3930    -1.7490    -1.0130 o          1 K5N      -0.554100
     25 O24         -2.6180     3.4540     0.9180 o          1 K5N      -0.604100
     26 S13          6.9080    -1.2360     0.5090 s6         1 K5N       1.249600
     27 H1           5.6260     0.6690     0.6020 hn         1 K5N       0.348500
     28 H2           3.7800     1.2420     1.4720 ha         1 K5N       0.146500
     29 H3           1.8260     2.6850     1.4630 ha         1 K5N       0.140000
     30 H4          -0.1610     3.4010     0.5620 h1         1 K5N       0.085700
     31 H5          -0.2050     3.2590    -2.4920 hc         1 K5N       0.047700
     32 H6          -1.0360     4.4530    -1.4880 hc         1 K5N       0.047700
     33 H7           0.7290     4.4010    -1.5200 hc         1 K5N       0.047700
     34 H8          -5.1320     3.7380    -0.1070 h1         1 K5N       0.066700
     35 H9          -6.5800     2.9120     0.4880 h1         1 K5N       0.066700
     36 H10         -5.3090     3.4040     1.6230 h1         1 K5N       0.066700
     37 H12         -4.3720    -4.9620    -0.2010 ha         1 K5N       0.131000
     38 H13         -6.8140    -5.3680    -0.0770 ha         1 K5N       0.131000
     39 H14         -8.3580    -3.4450     0.1760 ha         1 K5N       0.131000
     40 H15         -3.4880    -2.6870    -0.0710 ha         1 K5N       0.137000
     41 H16          2.4550    -0.5620    -2.1960 ha         1 K5N       0.146500
     42 H17          0.5130     0.9140    -2.2140 ha         1 K5N       0.140000
     43 H18         -2.6680    -0.5710    -0.0180 ha         1 K5N       0.164000
     44 H22         -1.4370     1.2070    -0.9320 hn         1 K5N       0.323500
     45 C23         -2.5070     2.3980     0.3120 c          1 K5N       0.709700
     46 C14          7.6170    -1.4140    -1.1030 c3         1 K5N      -0.251300
     47 O15          7.7730    -0.4040     1.3250 o          1 K5N      -0.591800
     48 O16          6.4890    -2.5340     0.9970 o          1 K5N      -0.591800
     49 H11         -7.4780    -1.1590     0.3040 ha         1 K5N       0.137000
     50 H19          8.5330    -1.9920    -0.9840 h1         1 K5N       0.110367
     51 H20          6.9240    -1.9450    -1.7500 h1         1 K5N       0.110367
     52 H21          7.8440    -0.4290    -1.5020 h1         1 K5N       0.110367
@<TRIPOS>BOND
     1     1    20 1   
     2     1    26 1   
     3     1    27 1   
     4     2     3 ar  
     5     2    15 ar  
     6     2    20 1   
     7     3     4 ar  
     8     3    28 1   
     9     4     5 ar  
    10     4    29 1   
    11     5     6 1   
    12     5    16 ar  
    13     6     7 1   
    14     6    23 1   
    15     6    30 1   
    16     7    31 1   
    17     7    32 1   
    18     7    33 1   
    19     8    17 1   
    20     8    18 1   
    21     8    21 2   
    22     9    22 1   
    23     9    34 1   
    24     9    35 1   
    25     9    36 1   
    26    10    13 ar  
    27    10    18 ar  
    28    10    49 1   
    29    11    12 ar  
    30    11    14 ar  
    31    11    37 1   
    32    12    13 ar  
    33    12    38 1   
    34    13    39 1   
    35    14    18 ar  
    36    14    40 1   
    37    15    16 ar  
    38    15    41 1   
    39    16    42 1   
    40    17    19 2   
    41    17    43 1   
    42    19    22 1   
    43    19    45 1   
    44    20    24 2   
    45    21    22 1   
    46    23    44 1   
    47    23    45 1   
    48    25    45 2   
    49    26    46 1   
    50    26    47 2   
    51    26    48 2   
    52    46    50 1   
    53    46    51 1   
    54    46    52 1   
@<TRIPOS>SUBSTRUCTURE
     1 K5N         1 TEMP              0 ****  ****    0 ROOT
