@<TRIPOS>MOLECULE
K5P
   58    61     1     0     0
SMALL
No Charge or Current Charge


@<TRIPOS>ATOM
      1 C1          -1.9440     0.4400    -1.3190 ca         1 K5P      -0.097000
      2 C2          -3.2970     0.8140    -1.2590 ca         1 K5P      -0.115500
      3 C3          -4.1130     0.4410    -0.1680 ca         1 K5P      -0.085300
      4 C7          -6.3350     0.2810    -1.3730 c3         1 K5P      -0.079767
      5 C8          -6.3530     0.4030     1.1380 c3         1 K5P      -0.079767
      6 C9          -5.6860     2.4270    -0.1920 c3         1 K5P      -0.079767
      7 C10          0.8930    -0.5670     0.7980 c6         1 K5P       0.184000
      8 C11          1.4980     0.8510     0.7490 ca         1 K5P      -0.111300
      9 C12          2.6950     1.1440     0.0590 ca         1 K5P      -0.067000
     10 C13          3.1960     2.4570     0.0320 ca         1 K5P      -0.176500
     11 C14          2.5140     3.4960     0.6820 ca         1 K5P       0.117100
     12 C15          1.3130     3.2140     1.3650 ca         1 K5P      -0.176500
     13 C16          0.8110     1.9010     1.3930 ca         1 K5P      -0.067000
     14 C19          2.5960    -2.1250    -0.3020 ca         1 K5P       0.038700
     15 C20          3.8920    -2.6760    -0.2770 ca         1 K5P      -0.107000
     16 C21          4.5150    -3.0740    -1.4700 ca         1 K5P      -0.095000
     17 C22          3.8410    -2.9260    -2.6910 ca         1 K5P      -0.157000
     18 C24          1.9160    -1.9650    -1.5240 ca         1 K5P      -0.158600
     19 C26          1.2810    -2.9070     1.6960 c          1 K5P       0.735000
     20 O2           0.5370    -3.6140     1.0340 o          1 K5P      -0.707500
     21 C18          1.9280    -1.6970     0.9960 c6         1 K5P      -0.192400
     22 O            3.0560     4.7630     0.6180 os         1 K5P      -0.350100
     23 C17          2.4310     5.8960     1.2480 c3         1 K5P       0.153900
     24 C23          2.5470    -2.3790    -2.7190 ca         1 K5P      -0.060000
     25 C25          0.5170    -1.3920    -1.5570 c          1 K5P       0.593600
     26 O1          -0.1650    -1.5040    -2.5720 o          1 K5P      -0.585000
     27 N            0.0100    -0.7770    -0.3780 n          1 K5P      -0.222400
     28 C           -1.3410    -0.2730    -0.2640 ca         1 K5P      -0.027000
     29 C5          -2.1700    -0.7180     0.7860 ca         1 K5P      -0.097000
     30 C4          -3.5250    -0.3490     0.8480 ca         1 K5P      -0.115500
     31 C6          -5.6040     0.8770    -0.1400 c3         1 K5P       0.005300
     32 H1          -1.3530     0.7430    -2.1790 ha         1 K5P       0.139500
     33 H2          -3.7080     1.3950    -2.0800 ha         1 K5P       0.102000
     34 H3          -6.2590    -0.8130    -1.3760 hc         1 K5P       0.030367
     35 H4          -7.3990     0.5470    -1.3650 hc         1 K5P       0.030367
     36 H5          -5.9100     0.6510    -2.3130 hc         1 K5P       0.030367
     37 H6          -6.3660    -0.6920     1.2060 hc         1 K5P       0.030367
     38 H7          -5.8830     0.8040     2.0440 hc         1 K5P       0.030367
     39 H8          -7.3960     0.7430     1.1280 hc         1 K5P       0.030367
     40 H9          -6.7270     2.7670    -0.1380 hc         1 K5P       0.030367
     41 H10         -5.1410     2.8710     0.6500 hc         1 K5P       0.030367
     42 H11         -5.2580     2.8250    -1.1190 hc         1 K5P       0.030367
     43 H12          0.2710    -0.5830     1.7030 h1         1 K5P       0.098700
     44 H13          3.2460     0.3680    -0.4630 ha         1 K5P       0.120000
     45 H14          4.1190     2.6700    -0.5010 ha         1 K5P       0.110500
     46 H15          0.7560     3.9950     1.8740 ha         1 K5P       0.110500
     47 H16         -0.1220     1.7020     1.9180 ha         1 K5P       0.120000
     48 H17          4.4140    -2.7970     0.6690 ha         1 K5P       0.112000
     49 H18          5.5160    -3.4990    -1.4460 ha         1 K5P       0.092000
     50 H19          4.3190    -3.2360    -3.6170 ha         1 K5P       0.094000
     51 H21          2.6910    -1.3110     1.6860 hc         1 K5P       0.057700
     52 H22          3.0250     6.8020     1.0750 h1         1 K5P       0.032700
     53 H23          1.4260     6.0640     0.8400 h1         1 K5P       0.032700
     54 H24          2.3510     5.7430     2.3320 h1         1 K5P       0.032700
     55 H25          2.0380    -2.2730    -3.6750 ha         1 K5P       0.117000
     56 H26         -1.7710    -1.3660     1.5630 ha         1 K5P       0.139500
     57 H27         -4.1020    -0.7050     1.6960 ha         1 K5P       0.102000
     58 O3           1.8100    -3.2940     2.7270 o          1 K5P      -0.707500
@<TRIPOS>BOND
     1     1     2 ar  
     2     1    28 ar  
     3     1    32 1   
     4     2     3 ar  
     5     2    33 1   
     6     3    30 ar  
     7     3    31 1   
     8     4    31 1   
     9     4    34 1   
    10     4    35 1   
    11     4    36 1   
    12     5    31 1   
    13     5    37 1   
    14     5    38 1   
    15     5    39 1   
    16     6    31 1   
    17     6    40 1   
    18     6    41 1   
    19     6    42 1   
    20     7     8 1   
    21     7    21 1   
    22     7    27 1   
    23     7    43 1   
    24     8     9 ar  
    25     8    13 ar  
    26     9    10 ar  
    27     9    44 1   
    28    10    11 ar  
    29    10    45 1   
    30    11    12 ar  
    31    11    22 1   
    32    12    13 ar  
    33    12    46 1   
    34    13    47 1   
    35    14    15 ar  
    36    14    18 ar  
    37    14    21 1   
    38    15    16 ar  
    39    15    48 1   
    40    16    17 ar  
    41    16    49 1   
    42    17    24 ar  
    43    17    50 1   
    44    18    24 ar  
    45    18    25 1   
    46    19    20 1   
    47    19    21 1   
    48    19    58 1   
    49    21    51 1   
    50    22    23 1   
    51    23    52 1   
    52    23    53 1   
    53    23    54 1   
    54    24    55 1   
    55    25    26 2   
    56    25    27 1   
    57    27    28 1   
    58    28    29 ar  
    59    29    30 ar  
    60    29    56 1   
    61    30    57 1   
@<TRIPOS>SUBSTRUCTURE
     1 K5P         1 TEMP              0 ****  ****    0 ROOT
