@<TRIPOS>MOLECULE
K5P
   58    61     1     0     0
SMALL
abcg2


@<TRIPOS>ATOM
      1 C1          -1.9160     0.5140    -1.1110 ca         1 K5P      -0.097000
      2 C2          -3.2440     0.9060    -1.0920 ca         1 K5P      -0.115500
      3 C3          -4.1750     0.3060    -0.2400 ca         1 K5P      -0.085300
      4 C7          -6.2010     0.5790    -1.6690 c3         1 K5P      -0.079767
      5 C8          -6.4990    -0.0160     0.7200 c3         1 K5P      -0.079767
      6 C9          -5.6910     2.2560     0.1200 c3         1 K5P      -0.079767
      7 C10          0.7080    -0.4350     0.8620 c6         1 K5P       0.184000
      8 C11          1.2960     0.9390     0.6200 ca         1 K5P      -0.111300
      9 C12          1.6220     1.4280    -0.6430 ca         1 K5P      -0.067000
     10 C13          2.1970     2.6770    -0.8040 ca         1 K5P      -0.176500
     11 C14          2.4660     3.4800     0.3040 ca         1 K5P       0.117100
     12 C15          2.1400     3.0100     1.5740 ca         1 K5P      -0.176500
     13 C16          1.5600     1.7550     1.7120 ca         1 K5P      -0.067000
     14 C19          2.5220    -1.8590    -0.0260 ca         1 K5P       0.038700
     15 C20          3.8780    -2.1610    -0.0100 ca         1 K5P      -0.107000
     16 C21          4.5300    -2.5390    -1.1730 ca         1 K5P      -0.095000
     17 C22          3.8300    -2.6340    -2.3710 ca         1 K5P      -0.157000
     18 C24          1.8270    -1.9440    -1.2320 ca         1 K5P      -0.158600
     19 C26          1.1450    -2.7430     1.8970 c          1 K5P       0.735000
     20 O2           1.7510    -3.8120     1.7240 o          1 K5P      -0.707500
     21 C18          1.7620    -1.4840     1.2010 c6         1 K5P      -0.192400
     22 O            3.0290     4.6790     0.0550 os         1 K5P      -0.350100
     23 C17          3.3140     5.5270     1.1490 c3         1 K5P       0.153900
     24 C23          2.4780    -2.3400    -2.3980 ca         1 K5P      -0.060000
     25 C25          0.3770    -1.6200    -1.2900 c          1 K5P       0.593600
     26 O1          -0.3250    -1.9700    -2.2290 o          1 K5P      -0.585000
     27 N           -0.1140    -0.9000    -0.2520 n          1 K5P      -0.222400
     28 C           -1.4780    -0.5000    -0.2680 ca         1 K5P      -0.027000
     29 C5          -2.3820    -1.1060     0.5890 ca         1 K5P      -0.097000
     30 C4          -3.7130    -0.7040     0.6000 ca         1 K5P      -0.115500
     31 C6          -5.6270     0.7700    -0.2590 c3         1 K5P       0.005300
     32 H1          -1.2190     1.0050    -1.7780 ha         1 K5P       0.139500
     33 H2          -3.5530     1.7030    -1.7580 ha         1 K5P       0.102000
     34 H3          -6.1690    -0.4710    -1.9670 hc         1 K5P       0.030367
     35 H4          -7.2440     0.9030    -1.7000 hc         1 K5P       0.030367
     36 H5          -5.6570     1.1540    -2.4180 hc         1 K5P       0.030367
     37 H6          -6.5250    -1.0800     0.4800 hc         1 K5P       0.030367
     38 H7          -6.1610     0.0910     1.7530 hc         1 K5P       0.030367
     39 H8          -7.5250     0.3520     0.6730 hc         1 K5P       0.030367
     40 H9          -6.7230     2.6100     0.0880 hc         1 K5P       0.030367
     41 H10         -5.3110     2.4220     1.1300 hc         1 K5P       0.030367
     42 H11         -5.1080     2.8770    -0.5620 hc         1 K5P       0.030367
     43 H12          0.0470    -0.3700     1.7270 h1         1 K5P       0.098700
     44 H13          1.4300     0.8420    -1.5320 ha         1 K5P       0.120000
     45 H14          2.4400     3.0380    -1.7960 ha         1 K5P       0.110500
     46 H15          2.3180     3.6010     2.4620 ha         1 K5P       0.110500
     47 H16          1.3100     1.4090     2.7090 ha         1 K5P       0.120000
     48 H17          4.4290    -2.0950     0.9200 ha         1 K5P       0.112000
     49 H18          5.5890    -2.7630    -1.1460 ha         1 K5P       0.092000
     50 H19          4.3390    -2.9310    -3.2790 ha         1 K5P       0.094000
     51 H21          2.4470    -1.0370     1.9290 hc         1 K5P       0.057700
     52 H22          3.7730     6.4230     0.7360 h1         1 K5P       0.032700
     53 H23          2.4090     5.8140     1.6910 h1         1 K5P       0.032700
     54 H24          4.0140     5.0680     1.8520 h1         1 K5P       0.032700
     55 H25          1.9240    -2.4080    -3.3250 ha         1 K5P       0.117000
     56 H26         -2.0400    -1.8870     1.2560 ha         1 K5P       0.139500
     57 H27         -4.3870    -1.2030     1.2820 ha         1 K5P       0.102000
     58 O3           0.1310    -2.5500     2.5930 o          1 K5P      -0.707500
@<TRIPOS>BOND
     1     1     2 ar  
     2     1    28 ar  
     3     1    32 1   
     4     2     3 ar  
     5     2    33 1   
     6     3    30 ar  
     7     3    31 1   
     8     4    31 1   
     9     4    34 1   
    10     4    35 1   
    11     4    36 1   
    12     5    31 1   
    13     5    37 1   
    14     5    38 1   
    15     5    39 1   
    16     6    31 1   
    17     6    40 1   
    18     6    41 1   
    19     6    42 1   
    20     7     8 1   
    21     7    21 1   
    22     7    27 1   
    23     7    43 1   
    24     8     9 ar  
    25     8    13 ar  
    26     9    10 ar  
    27     9    44 1   
    28    10    11 ar  
    29    10    45 1   
    30    11    12 ar  
    31    11    22 1   
    32    12    13 ar  
    33    12    46 1   
    34    13    47 1   
    35    14    15 ar  
    36    14    18 ar  
    37    14    21 1   
    38    15    16 ar  
    39    15    48 1   
    40    16    17 ar  
    41    16    49 1   
    42    17    24 ar  
    43    17    50 1   
    44    18    24 ar  
    45    18    25 1   
    46    19    20 1   
    47    19    21 1   
    48    19    58 1   
    49    21    51 1   
    50    22    23 1   
    51    23    52 1   
    52    23    53 1   
    53    23    54 1   
    54    24    55 1   
    55    25    26 2   
    56    25    27 1   
    57    27    28 1   
    58    28    29 ar  
    59    29    30 ar  
    60    29    56 1   
    61    30    57 1   
@<TRIPOS>SUBSTRUCTURE
     1 K5P         1 TEMP              0 ****  ****    0 ROOT
