@<TRIPOS>MOLECULE
K5Q
   47    50     1     0     0
SMALL
No Charge or Current Charge


@<TRIPOS>ATOM
      1 C1          -2.5380    -3.5660     1.3060 ca         1 K5Q      -0.114000
      2 C2          -3.8290    -4.1360     1.3210 ca         1 K5Q      -0.138000
      3 C3          -2.3310    -2.2840     0.7600 ca         1 K5Q      -0.084000
      4 C4          -0.4210    -0.6250    -1.2670 ca         1 K5Q      -0.110000
      5 C5          -4.9250    -3.4190     0.8050 ca         1 K5Q      -0.111000
      6 C6           0.9720    -0.7990    -1.2530 ca         1 K5Q      -0.159000
      7 C7          -3.4270    -1.5940     0.2110 ca         1 K5Q      -0.000800
      8 C8          -1.0130     0.4830    -0.6270 ca         1 K5Q      -0.112800
      9 C9          -0.1900     1.4550    -0.0030 ca         1 K5Q      -0.077600
     10 C10         -4.7030    -2.1460     0.2610 ca         1 K5Q      -0.109300
     11 C11          1.7880     0.1420    -0.6120 ca         1 K5Q       0.078100
     12 C12          1.2110     1.2850    -0.0020 ca         1 K5Q       0.052100
     13 C13         -3.4790    -0.2360    -0.3950 ce         1 K5Q      -0.210800
     14 C14         -4.9080     0.0450    -0.6420 ce         1 K5Q       0.439600
     15 C15         -2.4780     0.6530    -0.6770 cf         1 K5Q       0.020800
     16 C16         -0.7900     2.6660     0.6640 c          1 K5Q       0.725600
     17 C17          7.5150    -0.8190    -0.2910 c          1 K5Q       0.717000
     18 C18         -5.7400    -1.1940    -0.2880 c5         1 K5Q      -0.093400
     19 C19          3.4300     2.2010     0.2860 c6         1 K5Q       0.115600
     20 C20          3.9340     0.7390     0.3230 c6         1 K5Q       0.126300
     21 C22          5.4340     0.6070    -0.0680 c3         1 K5Q      -0.049400
     22 N23         -5.4000     1.2230    -0.3730 n2         1 K5Q      -0.342700
     23 O24         -1.1810     3.5800    -0.0500 o          1 K5Q      -0.711500
     24 O25          8.3080    -0.6090     0.6140 o          1 K5Q      -0.751000
     25 O26         -0.9200     2.6540     1.8810 o          1 K5Q      -0.711500
     26 O27          7.8460    -0.9690    -1.4570 o          1 K5Q      -0.751000
     27 O28          2.0190     2.2400     0.5880 os         1 K5Q      -0.305100
     28 O29          3.1540    -0.0580    -0.5950 os         1 K5Q      -0.335100
     29 O30         -6.6560     1.5010    -0.9510 oh         1 K5Q      -0.540000
     30 H1          -1.7000    -4.1150     1.7280 ha         1 K5Q       0.105000
     31 H2          -3.9810    -5.1240     1.7490 ha         1 K5Q       0.092000
     32 H3          -1.3410    -1.8420     0.7890 ha         1 K5Q       0.146000
     33 H5          -5.9270    -3.8420     0.8370 ha         1 K5Q       0.093000
     34 H4          -1.0460    -1.3570    -1.7740 ha         1 K5Q       0.094000
     35 H6           1.4180    -1.6660    -1.7360 ha         1 K5Q       0.110000
     36 H15         -2.7800     1.6230    -1.0800 ha         1 K5Q       0.219000
     37 H181        -6.2400    -1.5950    -1.1770 hc         1 K5Q       0.061700
     38 H182        -6.5150    -0.9700     0.4540 hc         1 K5Q       0.061700
     39 H211         5.4650    -1.4390    -0.6790 hc         1 K5Q       0.025200
     40 H212         5.8590    -1.1310     1.0890 hc         1 K5Q       0.025200
     41 H191         3.9720     2.8200     1.0150 h1         1 K5Q       0.053700
     42 H192         3.5910     2.6240    -0.7160 h1         1 K5Q       0.053700
     43 H20          3.7930     0.3430     1.3390 h1         1 K5Q       0.050700
     44 H221         5.5790     0.9700    -1.0940 hc         1 K5Q       0.047700
     45 H222         6.0270     1.2700     0.5740 hc         1 K5Q       0.047700
     46 H30         -6.8810     2.4160    -0.6520 ho         1 K5Q       0.458000
     47 C21          6.0150    -0.8270     0.0460 c3         1 K5Q      -0.203400
@<TRIPOS>BOND
     1     1     2 ar  
     2     1     3 ar  
     3     1    30 1   
     4     2     5 ar  
     5     2    31 1   
     6     3     7 ar  
     7     3    32 1   
     8     4     6 ar  
     9     4     8 ar  
    10     4    34 1   
    11     5    10 ar  
    12     5    33 1   
    13     6    11 ar  
    14     6    35 1   
    15     7    10 ar  
    16     7    13 1   
    17     8     9 ar  
    18     8    15 1   
    19     9    12 ar  
    20     9    16 1   
    21    10    18 1   
    22    11    12 ar  
    23    11    28 1   
    24    12    27 1   
    25    13    14 1   
    26    13    15 2   
    27    14    18 1   
    28    14    22 2   
    29    15    36 1   
    30    16    23 1   
    31    16    25 1   
    32    17    24 1   
    33    17    26 1   
    34    17    47 1   
    35    18    37 1   
    36    18    38 1   
    37    19    20 1   
    38    19    27 1   
    39    19    41 1   
    40    19    42 1   
    41    20    21 1   
    42    20    28 1   
    43    20    43 1   
    44    21    44 1   
    45    21    45 1   
    46    21    47 1   
    47    22    29 1   
    48    29    46 1   
    49    39    47 1   
    50    40    47 1   
@<TRIPOS>SUBSTRUCTURE
     1 K5Q         1 TEMP              0 ****  ****    0 ROOT
