@<TRIPOS>MOLECULE
K5Q
   47    50     1     0     0
SMALL
abcg2


@<TRIPOS>ATOM
      1 C1          -2.5830    -3.6950     1.0900 ca         1 K5Q      -0.114000
      2 C2          -3.8820    -4.1930     1.1200 ca         1 K5Q      -0.138000
      3 C3          -2.3260    -2.4080     0.6410 ca         1 K5Q      -0.084000
      4 C4          -0.3960    -0.5990    -1.1720 ca         1 K5Q      -0.110000
      5 C5          -4.9440    -3.3940     0.7170 ca         1 K5Q      -0.111000
      6 C6           0.9750    -0.7640    -1.2080 ca         1 K5Q      -0.159000
      7 C7          -3.3840    -1.6070     0.2130 ca         1 K5Q      -0.000800
      8 C8          -0.9770     0.4740    -0.4910 ca         1 K5Q      -0.112800
      9 C9          -0.1440     1.4250     0.1110 ca         1 K5Q      -0.077600
     10 C10         -4.6890    -2.1070     0.2740 ca         1 K5Q      -0.109300
     11 C11          1.8020     0.1550    -0.5730 ca         1 K5Q       0.078100
     12 C12          1.2330     1.2550     0.0710 ca         1 K5Q       0.052100
     13 C13         -3.4070    -0.2120    -0.2540 ce         1 K5Q      -0.210800
     14 C14         -4.8410     0.1270    -0.4180 ce         1 K5Q       0.439600
     15 C15         -2.4260     0.6790    -0.4820 cf         1 K5Q       0.020800
     16 C16         -0.7160     2.6400     0.8300 c          1 K5Q       0.725600
     17 C17          7.4570    -0.8160    -0.2900 c          1 K5Q       0.717000
     18 C18         -5.6970    -1.0810    -0.1500 c5         1 K5Q      -0.093400
     19 C19          3.3650     2.1750     0.2620 c6         1 K5Q       0.115600
     20 C20          3.9050     0.7600     0.2900 c6         1 K5Q       0.126300
     21 C22          5.3600     0.6840    -0.1190 c3         1 K5Q      -0.049400
     22 N23         -5.2280     1.2880    -0.7520 n2         1 K5Q      -0.342700
     23 O24         -1.0240     3.6030     0.1060 o          1 K5Q      -0.711500
     24 O25          8.0920     0.2450    -0.4470 o          1 K5Q      -0.751000
     25 O26         -0.8250     2.5410     2.0630 o          1 K5Q      -0.711500
     26 O27          7.9270    -1.9720    -0.3270 o          1 K5Q      -0.751000
     27 O28          2.0070     2.2000     0.6660 os         1 K5Q      -0.305100
     28 O29          3.1380    -0.0440    -0.6080 os         1 K5Q      -0.335100
     29 O30         -6.5870     1.3770    -0.8540 oh         1 K5Q      -0.540000
     30 H1          -1.7600    -4.3170     1.4200 ha         1 K5Q       0.105000
     31 H2          -4.0670    -5.2010     1.4670 ha         1 K5Q       0.092000
     32 H3          -1.3090    -2.0430     0.6330 ha         1 K5Q       0.146000
     33 H5          -5.9590    -3.7690     0.7580 ha         1 K5Q       0.093000
     34 H4          -1.0260    -1.3130    -1.6880 ha         1 K5Q       0.094000
     35 H6           1.4170    -1.6030    -1.7310 ha         1 K5Q       0.110000
     36 H15         -2.7490     1.6930    -0.7030 ha         1 K5Q       0.219000
     37 H181        -6.2440    -1.3830    -1.0480 hc         1 K5Q       0.061700
     38 H182        -6.4470    -0.8910     0.6230 hc         1 K5Q       0.061700
     39 H211         5.4240    -1.4060    -0.6750 hc         1 K5Q       0.025200
     40 H212         5.7680    -1.1030     1.0020 hc         1 K5Q       0.025200
     41 H191         3.9140     2.8050     0.9600 h1         1 K5Q       0.053700
     42 H192         3.4720     2.6000    -0.7440 h1         1 K5Q       0.053700
     43 H20          3.7850     0.3610     1.3070 h1         1 K5Q       0.050700
     44 H221         5.4720     1.0690    -1.1360 hc         1 K5Q       0.047700
     45 H222         5.9190     1.3640     0.5280 hc         1 K5Q       0.047700
     46 H30         -6.7480     2.2970    -1.0910 ho         1 K5Q       0.458000
     47 C21          5.9460    -0.7160    -0.0080 c3         1 K5Q      -0.203400
@<TRIPOS>BOND
     1     1     2 ar  
     2     1     3 ar  
     3     1    30 1   
     4     2     5 ar  
     5     2    31 1   
     6     3     7 ar  
     7     3    32 1   
     8     4     6 ar  
     9     4     8 ar  
    10     4    34 1   
    11     5    10 ar  
    12     5    33 1   
    13     6    11 ar  
    14     6    35 1   
    15     7    10 ar  
    16     7    13 1   
    17     8     9 ar  
    18     8    15 1   
    19     9    12 ar  
    20     9    16 1   
    21    10    18 1   
    22    11    12 ar  
    23    11    28 1   
    24    12    27 1   
    25    13    14 1   
    26    13    15 2   
    27    14    18 1   
    28    14    22 2   
    29    15    36 1   
    30    16    23 1   
    31    16    25 1   
    32    17    24 1   
    33    17    26 1   
    34    17    47 1   
    35    18    37 1   
    36    18    38 1   
    37    19    20 1   
    38    19    27 1   
    39    19    41 1   
    40    19    42 1   
    41    20    21 1   
    42    20    28 1   
    43    20    43 1   
    44    21    44 1   
    45    21    45 1   
    46    21    47 1   
    47    22    29 1   
    48    29    46 1   
    49    39    47 1   
    50    40    47 1   
@<TRIPOS>SUBSTRUCTURE
     1 K5Q         1 TEMP              0 ****  ****    0 ROOT
