@<TRIPOS>MOLECULE
K5R
   51    54     1     0     0
SMALL
No Charge or Current Charge


@<TRIPOS>ATOM
      1 C4          25.1380     1.6450   -14.5240 ca         1 K5R      -0.143600
      2 C5          26.0780     1.8890   -15.6910 c          1 K5R       0.612700
      3 C7          30.0030     2.8740   -10.8670 ca         1 K5R       0.334000
      4 C8          25.5640     1.7890   -13.1770 ca         1 K5R      -0.046000
      5 C10         31.3540     2.7130   -14.9510 cx         1 K5R      -0.203000
      6 C13         30.6060     3.4320   -16.0560 cx         1 K5R      -0.103400
      7 C20         30.0160     3.5330    -8.3500 ca         1 K5R       0.205000
      8 C22         31.8150     3.0520   -12.4780 ca         1 K5R      -0.092000
      9 C24         24.6140     1.5740   -12.1440 ca         1 K5R       0.335900
     10 C26         29.5710     3.0810    -7.0870 ca         1 K5R       0.064400
     11 C28         22.9190     1.1200   -13.6540 ca         1 K5R       0.316900
     12 C1          29.1410     2.5640   -11.9710 ca         1 K5R       0.218500
     13 N2          29.5980     2.5250   -13.2640 nb         1 K5R      -0.661000
     14 C3          27.6640     2.2350   -11.7410 c          1 K5R       0.526600
     15 N6          26.9280     2.1140   -12.9140 ns         1 K5R      -0.131000
     16 C9          30.9040     2.7700   -13.5110 ca         1 K5R       0.360300
     17 C12         30.6250     1.9220   -16.0220 cx         1 K5R      -0.103400
     18 N14         25.9630     1.0730   -16.8410 n          1 K5R      -0.395800
     19 O15         26.8610     2.8290   -15.6730 o          1 K5R      -0.600100
     20 O16         27.1710     2.0660   -10.6250 o          1 K5R      -0.623100
     21 N17         29.9830     3.6500    -5.9340 nb         1 K5R      -0.149000
     22 N18         31.3140     5.2170    -7.1950 nb         1 K5R      -0.149000
     23 C19         31.3650     3.0990   -11.1470 ca         1 K5R      -0.152000
     24 N21         23.3200     1.2450   -12.3720 nb         1 K5R      -0.642000
     25 C23         30.8380     4.6880    -6.0480 ca         1 K5R       0.088900
     26 C25         23.7810     1.3120   -14.7450 ca         1 K5R      -0.125000
     27 C27         30.8980     4.6400    -8.3430 ca         1 K5R       0.064400
     28 C29         26.7420     1.4090   -18.0540 c3         1 K5R       0.084300
     29 C30         25.4750    -0.3230   -16.7450 c3         1 K5R       0.084300
     30 H1          32.4390     2.7180   -15.0300 hc         1 K5R       0.082700
     31 H2          29.6710     3.9280   -15.8040 hc         1 K5R       0.078200
     32 H3          31.1910     3.9300   -16.8250 hc         1 K5R       0.078200
     33 H4          32.8630     3.2280   -12.7080 ha         1 K5R       0.129000
     34 H5          24.8760     1.6660   -11.0930 h4         1 K5R       0.042100
     35 H6          28.8780     2.2460    -6.9960 h4         1 K5R       0.032100
     36 H7          21.8710     0.8670   -13.8130 h4         1 K5R       0.025100
     37 H8          27.4790     2.2960   -13.7470 hn         1 K5R       0.207000
     38 H9          28.6110     2.4960    -9.4380 hn         1 K5R       0.543000
     39 H10         31.2250     1.4080   -16.7690 hc         1 K5R       0.078200
     40 H11         29.7000     1.4140   -15.7590 hc         1 K5R       0.078200
     41 H12         32.0750     3.2880   -10.3490 ha         1 K5R       0.132000
     42 H13         31.1730     5.1500    -5.1210 h5         1 K5R       0.054100
     43 H14         23.3800     1.2270   -15.7510 ha         1 K5R       0.130000
     44 H15         31.2610     5.0910    -9.2640 h4         1 K5R       0.032100
     45 H16         26.4070     0.7990   -18.9020 h1         1 K5R       0.045700
     46 H17         26.6010     2.4680   -18.3070 h1         1 K5R       0.045700
     47 H18         27.8080     1.2210   -17.8730 h1         1 K5R       0.045700
     48 H19         26.0860    -0.9810   -17.3770 h1         1 K5R       0.045700
     49 H20         25.5390    -0.6860   -15.7110 h1         1 K5R       0.045700
     50 H21         24.4340    -0.3770   -17.0860 h1         1 K5R       0.045700
     51 N11         29.5460     2.9250    -9.5320 nu         1 K5R      -0.974000
@<TRIPOS>BOND
     1     1     2 1   
     2     1     4 ar  
     3     1    26 ar  
     4     2    18 1   
     5     2    19 2   
     6     3    12 ar  
     7     3    23 ar  
     8     3    51 1   
     9     4     9 ar  
    10     4    15 1   
    11     5     6 1   
    12     5    16 1   
    13     5    17 1   
    14     5    30 1   
    15     6    17 1   
    16     6    31 1   
    17     6    32 1   
    18     7    10 ar  
    19     7    27 ar  
    20     7    51 1   
    21     8    16 ar  
    22     8    23 ar  
    23     8    33 1   
    24     9    24 ar  
    25     9    34 1   
    26    10    21 ar  
    27    10    35 1   
    28    11    24 ar  
    29    11    26 ar  
    30    11    36 1   
    31    12    13 ar  
    32    12    14 1   
    33    13    16 ar  
    34    14    15 1   
    35    14    20 2   
    36    15    37 1   
    37    17    39 1   
    38    17    40 1   
    39    18    28 1   
    40    18    29 1   
    41    21    25 ar  
    42    22    25 ar  
    43    22    27 ar  
    44    23    41 1   
    45    25    42 1   
    46    26    43 1   
    47    27    44 1   
    48    28    45 1   
    49    28    46 1   
    50    28    47 1   
    51    29    48 1   
    52    29    49 1   
    53    29    50 1   
    54    38    51 1   
@<TRIPOS>SUBSTRUCTURE
     1 K5R         1 TEMP              0 ****  ****    0 ROOT
