@<TRIPOS>MOLECULE
K5R
   51    54     1     0     0
SMALL
abcg2


@<TRIPOS>ATOM
      1 C4          25.1320     1.9540   -14.7450 ca         1 K5R      -0.143600
      2 C5          26.1460     1.6260   -15.8020 c          1 K5R       0.612700
      3 C7          29.8230     2.8130   -11.1000 ca         1 K5R       0.334000
      4 C8          25.5240     2.5820   -13.5620 ca         1 K5R      -0.046000
      5 C10         31.1990     3.5400   -15.0640 cx         1 K5R      -0.203000
      6 C13         30.3150     4.3030   -16.0140 cx         1 K5R      -0.103400
      7 C20         29.9200     2.8650    -8.6330 ca         1 K5R       0.205000
      8 C22         31.6530     3.2130   -12.6170 ca         1 K5R      -0.092000
      9 C24         24.5280     2.9590   -12.6610 ca         1 K5R       0.335900
     10 C26         29.6260     2.0880    -7.5110 ca         1 K5R       0.064400
     11 C28         22.8720     2.1580   -14.0060 ca         1 K5R       0.316900
     12 C1          28.9920     2.8570   -12.2330 ca         1 K5R       0.218500
     13 N2          29.4630     3.0840   -13.4570 nb         1 K5R      -0.661000
     14 C3          27.5200     2.6240   -12.1490 c          1 K5R       0.526600
     15 N6          26.8760     2.8260   -13.3200 ns         1 K5R      -0.131000
     16 C9          30.7450     3.2760   -13.6810 ca         1 K5R       0.360300
     17 C12         30.5360     2.8460   -16.2240 cx         1 K5R      -0.103400
     18 N14         26.3310     0.3370   -16.1090 n          1 K5R      -0.395800
     19 O15         26.7330     2.5520   -16.3500 o          1 K5R      -0.600100
     20 O16         26.9620     2.2720   -11.1170 o          1 K5R      -0.623100
     21 N17         30.1290     2.3450    -6.3170 nb         1 K5R      -0.149000
     22 N18         31.2870     4.1930    -7.2090 nb         1 K5R      -0.149000
     23 C19         31.1960     2.9800   -11.3430 ca         1 K5R      -0.152000
     24 N21         23.2390     2.7490   -12.8760 nb         1 K5R      -0.642000
     25 C23         30.9500     3.3810    -6.2210 ca         1 K5R       0.088900
     26 C25         23.7790     1.7480   -14.9680 ca         1 K5R      -0.125000
     27 C27         30.7690     3.9480    -8.4030 ca         1 K5R       0.064400
     28 C29         27.2330    -0.0170   -17.1870 c3         1 K5R       0.084300
     29 C30         25.8420    -0.7750   -15.3200 c3         1 K5R       0.084300
     30 H1          32.2650     3.7120   -15.1540 hc         1 K5R       0.082700
     31 H2          29.3490     4.6180   -15.6400 hc         1 K5R       0.078200
     32 H3          30.7930     5.0040   -16.6860 hc         1 K5R       0.078200
     33 H4          32.7140     3.3350   -12.7950 ha         1 K5R       0.129000
     34 H5          24.7890     3.4620   -11.7400 h4         1 K5R       0.042100
     35 H6          28.9510     1.2410    -7.6000 h4         1 K5R       0.032100
     36 H7          21.8090     2.0080   -14.1580 h4         1 K5R       0.025100
     37 H8          27.4790     3.0420   -14.1070 hn         1 K5R       0.207000
     38 H9          28.3730     2.2260    -9.8220 hn         1 K5R       0.543000
     39 H10         31.1700     2.5290   -17.0410 hc         1 K5R       0.078200
     40 H11         29.7200     2.1720   -15.9970 hc         1 K5R       0.078200
     41 H12         31.9100     2.9040   -10.5340 ha         1 K5R       0.132000
     42 H13         31.3760     3.5850    -5.2450 h5         1 K5R       0.054100
     43 H14         23.4340     1.2690   -15.8750 ha         1 K5R       0.130000
     44 H15         31.0270     4.6400    -9.1970 h4         1 K5R       0.032100
     45 H16         26.8790    -0.9340   -17.6570 h1         1 K5R       0.045700
     46 H17         27.2670     0.7650   -17.9390 h1         1 K5R       0.045700
     47 H18         28.2450    -0.1910   -16.8150 h1         1 K5R       0.045700
     48 H19         26.6810    -1.4030   -15.0190 h1         1 K5R       0.045700
     49 H20         25.3400    -0.4380   -14.4190 h1         1 K5R       0.045700
     50 H21         25.1470    -1.3860   -15.8980 h1         1 K5R       0.045700
     51 N11         29.3240     2.5730    -9.8450 nu         1 K5R      -0.974000
@<TRIPOS>BOND
     1     1     2 1   
     2     1     4 ar  
     3     1    26 ar  
     4     2    18 1   
     5     2    19 2   
     6     3    12 ar  
     7     3    23 ar  
     8     3    51 1   
     9     4     9 ar  
    10     4    15 1   
    11     5     6 1   
    12     5    16 1   
    13     5    17 1   
    14     5    30 1   
    15     6    17 1   
    16     6    31 1   
    17     6    32 1   
    18     7    10 ar  
    19     7    27 ar  
    20     7    51 1   
    21     8    16 ar  
    22     8    23 ar  
    23     8    33 1   
    24     9    24 ar  
    25     9    34 1   
    26    10    21 ar  
    27    10    35 1   
    28    11    24 ar  
    29    11    26 ar  
    30    11    36 1   
    31    12    13 ar  
    32    12    14 1   
    33    13    16 ar  
    34    14    15 1   
    35    14    20 2   
    36    15    37 1   
    37    17    39 1   
    38    17    40 1   
    39    18    28 1   
    40    18    29 1   
    41    21    25 ar  
    42    22    25 ar  
    43    22    27 ar  
    44    23    41 1   
    45    25    42 1   
    46    26    43 1   
    47    27    44 1   
    48    28    45 1   
    49    28    46 1   
    50    28    47 1   
    51    29    48 1   
    52    29    49 1   
    53    29    50 1   
    54    38    51 1   
@<TRIPOS>SUBSTRUCTURE
     1 K5R         1 TEMP              0 ****  ****    0 ROOT
