@<TRIPOS>MOLECULE
K5S
   63    67     1     0     0
SMALL
No Charge or Current Charge


@<TRIPOS>ATOM
      1 F            4.7590    -2.5420    -3.6970 f          1 K5S      -0.196000
      2 C28          4.1140    -2.2010    -2.5600 ca         1 K5S       0.133000
      3 C            4.8500    -1.9150    -1.4020 ca         1 K5S      -0.132000
      4 C27          2.7130    -2.1290    -2.5470 ca         1 K5S      -0.108000
      5 C26          2.0280    -1.7630    -1.3660 ca         1 K5S      -0.138600
      6 C2           2.7710    -1.4960    -0.1970 ca         1 K5S      -0.015300
      7 C1           4.1780    -1.5660    -0.2180 ca         1 K5S      -0.062000
      8 C25          0.5190    -1.6520    -1.3560 c          1 K5S       0.591600
      9 O4          -0.1440    -2.1810    -2.2410 o          1 K5S      -0.563000
     10 N           -0.0860    -0.9390    -0.2820 n          1 K5S      -0.237400
     11 C15         -1.5160    -0.7710    -0.1550 ca         1 K5S      -0.020000
     12 C24         -2.3110    -0.4750    -1.2740 ca         1 K5S      -0.097000
     13 C23         -3.7140    -0.4510    -1.2030 ca         1 K5S       0.131000
     14 Cl          -4.5190     0.0070    -2.7090 cl         1 K5S      -0.231000
     15 C18         -4.3960    -0.7890     0.0090 ca         1 K5S      -0.061300
     16 C19         -5.9590    -0.7730     0.1590 c3         1 K5S       0.011300
     17 C22         -6.6150    -1.8030    -0.8050 c3         1 K5S      -0.085100
     18 C21         -6.4320    -1.1620     1.5930 c3         1 K5S      -0.085100
     19 C20         -6.5220     0.6550    -0.1020 c3         1 K5S      -0.085100
     20 C17         -3.5730    -1.1770     1.1020 ca         1 K5S      -0.109000
     21 C16         -2.1730    -1.1920     1.0120 ca         1 K5S      -0.100000
     22 C6           0.7610    -0.3300     0.7830 c6         1 K5S       0.167000
     23 C3           2.0270    -1.1690     1.0930 c6         1 K5S      -0.011400
     24 C4           1.6670    -2.4710     1.8850 c3         1 K5S      -0.207400
     25 C5           2.9140    -3.1630     2.4570 c          1 K5S       0.718000
     26 O1           3.3520    -2.7610     3.5230 o          1 K5S      -0.731000
     27 O            3.4350    -4.0540     1.8040 o          1 K5S      -0.731000
     28 C7           1.1040     1.1430     0.4870 ca         1 K5S      -0.086300
     29 C14          1.0670     2.0780     1.5440 ca         1 K5S      -0.098000
     30 C13          1.3820     3.4270     1.3150 ca         1 K5S       0.053100
     31 C10          1.7190     3.8630     0.0110 ca         1 K5S       0.046100
     32 C9           1.7710     2.9380    -1.0420 ca         1 K5S      -0.111000
     33 C8           1.4650     1.5850    -0.8070 ca         1 K5S      -0.093000
     34 O3           1.3580     4.3160     2.3710 os         1 K5S      -0.330100
     35 C12          1.9880     5.6010     2.1740 c6         1 K5S       0.119600
     36 C11          1.6330     6.1520     0.7750 c6         1 K5S       0.119600
     37 O2           2.0010     5.1920    -0.2400 os         1 K5S      -0.335100
     38 H1           5.9360    -1.9720    -1.4190 ha         1 K5S       0.123000
     39 H2           2.1630    -2.3460    -3.4600 ha         1 K5S       0.138000
     40 H3           4.7500    -1.3630     0.6850 ha         1 K5S       0.155000
     41 H4          -1.8340    -0.2190    -2.2170 ha         1 K5S       0.136000
     42 H5          -6.1720    -2.7960    -0.6640 hc         1 K5S       0.035367
     43 H6          -7.6920    -1.8850    -0.6140 hc         1 K5S       0.035367
     44 H7          -6.5030    -1.5310    -1.8570 hc         1 K5S       0.035367
     45 H8          -6.0280    -0.4740     2.3460 hc         1 K5S       0.035367
     46 H9          -7.5260    -1.1220     1.6730 hc         1 K5S       0.035367
     47 H10         -6.1290    -2.1840     1.8500 hc         1 K5S       0.035367
     48 H11         -6.4180     0.9690    -1.1430 hc         1 K5S       0.035367
     49 H12         -7.5920     0.7030     0.1320 hc         1 K5S       0.035367
     50 H13         -6.0080     1.3920     0.5270 hc         1 K5S       0.035367
     51 H14         -3.9930    -1.4930     2.0510 ha         1 K5S       0.115000
     52 H15         -1.6020    -1.5460     1.8680 ha         1 K5S       0.139000
     53 H16          0.1730    -0.3060     1.7090 h1         1 K5S       0.068700
     54 H17          2.6740    -0.5710     1.7510 hc         1 K5S       0.095700
     55 H18          1.0390    -2.1470     2.7240 hc         1 K5S       0.030200
     56 H19          1.1440    -3.1450     1.1950 hc         1 K5S       0.030200
     57 H21          0.8030     1.7600     2.5500 ha         1 K5S       0.133000
     58 H22          2.0380     3.2690    -2.0420 ha         1 K5S       0.121000
     59 H23          1.5080     0.8920    -1.6410 ha         1 K5S       0.125000
     60 H24          1.6580     6.2940     2.9600 h1         1 K5S       0.062200
     61 H25          3.0780     5.4800     2.2540 h1         1 K5S       0.062200
     62 H26          0.5500     6.3340     0.7170 h1         1 K5S       0.058700
     63 H27          2.1540     7.1000     0.5870 h1         1 K5S       0.058700
@<TRIPOS>BOND
     1     1     2 1   
     2     2     3 ar  
     3     2     4 ar  
     4     3     7 ar  
     5     3    38 1   
     6     4     5 ar  
     7     4    39 1   
     8     5     6 ar  
     9     5     8 1   
    10     6     7 ar  
    11     6    23 1   
    12     7    40 1   
    13     8     9 2   
    14     8    10 1   
    15    10    11 1   
    16    10    22 1   
    17    11    12 ar  
    18    11    21 ar  
    19    12    13 ar  
    20    12    41 1   
    21    13    14 1   
    22    13    15 ar  
    23    15    16 1   
    24    15    20 ar  
    25    16    17 1   
    26    16    18 1   
    27    16    19 1   
    28    17    42 1   
    29    17    43 1   
    30    17    44 1   
    31    18    45 1   
    32    18    46 1   
    33    18    47 1   
    34    19    48 1   
    35    19    49 1   
    36    19    50 1   
    37    20    21 ar  
    38    20    51 1   
    39    21    52 1   
    40    22    23 1   
    41    22    28 1   
    42    22    53 1   
    43    23    24 1   
    44    23    54 1   
    45    24    25 1   
    46    24    55 1   
    47    24    56 1   
    48    25    26 1   
    49    25    27 1   
    50    28    29 ar  
    51    28    33 ar  
    52    29    30 ar  
    53    29    57 1   
    54    30    31 ar  
    55    30    34 1   
    56    31    32 ar  
    57    31    37 1   
    58    32    33 ar  
    59    32    58 1   
    60    33    59 1   
    61    34    35 1   
    62    35    36 1   
    63    35    60 1   
    64    35    61 1   
    65    36    37 1   
    66    36    62 1   
    67    36    63 1   
@<TRIPOS>SUBSTRUCTURE
     1 K5S         1 TEMP              0 ****  ****    0 ROOT
