@<TRIPOS>MOLECULE
K5S
   63    67     1     0     0
SMALL
abcg2


@<TRIPOS>ATOM
      1 F            4.7220    -2.4140    -3.5220 f          1 K5S      -0.196000
      2 C28          4.0760    -2.0910    -2.3890 ca         1 K5S       0.133000
      3 C            4.8160    -1.7240    -1.2800 ca         1 K5S      -0.132000
      4 C27          2.7000    -2.1320    -2.3720 ca         1 K5S      -0.108000
      5 C26          2.0430    -1.7790    -1.1960 ca         1 K5S      -0.138600
      6 C2           2.7570    -1.4090    -0.0580 ca         1 K5S      -0.015300
      7 C1           4.1460    -1.3910    -0.1130 ca         1 K5S      -0.062000
      8 C25          0.5550    -1.8040    -1.1880 c          1 K5S       0.591600
      9 O4          -0.0840    -2.3870    -2.0490 o          1 K5S      -0.563000
     10 N           -0.0430    -1.1230    -0.1780 n          1 K5S      -0.237400
     11 C15         -1.4590    -1.0340    -0.1430 ca         1 K5S      -0.020000
     12 C24         -2.1390    -0.2200    -1.0320 ca         1 K5S      -0.097000
     13 C23         -3.5200    -0.1050    -0.9580 ca         1 K5S       0.131000
     14 CL          -4.2130     0.9620    -2.1500 cl         1 K5S      -0.231000
     15 C18         -4.2880    -0.7840    -0.0010 ca         1 K5S      -0.061300
     16 C19         -5.8120    -0.6860     0.1320 c3         1 K5S       0.011300
     17 C22         -6.4980    -1.2100    -1.1390 c3         1 K5S      -0.085100
     18 C21         -6.3330    -1.5450     1.2910 c3         1 K5S      -0.085100
     19 C20         -6.2320     0.7600     0.4380 c3         1 K5S      -0.085100
     20 C17         -3.5550    -1.5930     0.8730 ca         1 K5S      -0.109000
     21 C16         -2.1780    -1.7270     0.8140 ca         1 K5S      -0.100000
     22 C6           0.6970    -0.3720     0.8310 c6         1 K5S       0.167000
     23 C3           1.9920    -1.1050     1.1960 c6         1 K5S      -0.011400
     24 C4           1.7140    -2.3830     1.9910 c3         1 K5S      -0.207400
     25 C5           2.9590    -3.0010     2.6570 c          1 K5S       0.718000
     26 O1           3.8380    -2.2110     3.0560 o          1 K5S      -0.731000
     27 O            2.9640    -4.2410     2.7800 o          1 K5S      -0.731000
     28 C7           0.9320     1.0700     0.4330 ca         1 K5S      -0.086300
     29 C14          1.0720     2.0100     1.4480 ca         1 K5S      -0.098000
     30 C13          1.3350     3.3420     1.1660 ca         1 K5S       0.053100
     31 C10          1.4500     3.7570    -0.1650 ca         1 K5S       0.046100
     32 C9           1.3130     2.8210    -1.1790 ca         1 K5S      -0.111000
     33 C8           1.0630     1.4900    -0.8850 ca         1 K5S      -0.093000
     34 O3           1.4680     4.2080     2.1990 os         1 K5S      -0.330100
     35 C12          2.0550     5.4520     1.8460 c6         1 K5S       0.119600
     36 C11          1.4500     5.9690     0.5630 c6         1 K5S       0.119600
     37 O2           1.6840     5.0500    -0.4930 os         1 K5S      -0.335100
     38 H1           5.8970    -1.7020    -1.3260 ha         1 K5S       0.123000
     39 H2           2.1470    -2.4230    -3.2550 ha         1 K5S       0.138000
     40 H3           4.7080    -1.1220     0.7700 ha         1 K5S       0.155000
     41 H4          -1.5960     0.3340    -1.7860 ha         1 K5S       0.136000
     42 H5          -6.2360    -2.2560    -1.3100 hc         1 K5S       0.035367
     43 H6          -7.5820    -1.1570    -1.0180 hc         1 K5S       0.035367
     44 H7          -6.2420    -0.6490    -2.0340 hc         1 K5S       0.035367
     45 H8          -5.9340    -1.2320     2.2570 hc         1 K5S       0.035367
     46 H9          -7.4180    -1.4420     1.3410 hc         1 K5S       0.035367
     47 H10         -6.1170    -2.6060     1.1560 hc         1 K5S       0.035367
     48 H11         -6.0320     1.4500    -0.3780 hc         1 K5S       0.035367
     49 H12         -7.3050     0.7950     0.6370 hc         1 K5S       0.035367
     50 H13         -5.7200     1.1290     1.3280 hc         1 K5S       0.035367
     51 H14         -4.0720    -2.1500     1.6390 ha         1 K5S       0.115000
     52 H15         -1.6680    -2.3720     1.5190 ha         1 K5S       0.139000
     53 H16          0.0750    -0.3670     1.7290 h1         1 K5S       0.068700
     54 H17          2.5790    -0.4330     1.8250 hc         1 K5S       0.095700
     55 H18          1.0010    -2.1420     2.7910 hc         1 K5S       0.030200
     56 H19          1.2200    -3.1280     1.3630 hc         1 K5S       0.030200
     57 H21          0.9760     1.7110     2.4870 ha         1 K5S       0.133000
     58 H22          1.4040     3.1450    -2.2090 ha         1 K5S       0.121000
     59 H23          0.9660     0.7930    -1.7070 ha         1 K5S       0.125000
     60 H24          1.8620     6.1430     2.6650 h1         1 K5S       0.062200
     61 H25          3.1390     5.3380     1.7380 h1         1 K5S       0.062200
     62 H26          0.3750     6.1330     0.6880 h1         1 K5S       0.058700
     63 H27          1.9120     6.9130     0.2790 h1         1 K5S       0.058700
@<TRIPOS>BOND
     1     1     2 1   
     2     2     3 ar  
     3     2     4 ar  
     4     3     7 ar  
     5     3    38 1   
     6     4     5 ar  
     7     4    39 1   
     8     5     6 ar  
     9     5     8 1   
    10     6     7 ar  
    11     6    23 1   
    12     7    40 1   
    13     8     9 2   
    14     8    10 1   
    15    10    11 1   
    16    10    22 1   
    17    11    12 ar  
    18    11    21 ar  
    19    12    13 ar  
    20    12    41 1   
    21    13    14 1   
    22    13    15 ar  
    23    15    16 1   
    24    15    20 ar  
    25    16    17 1   
    26    16    18 1   
    27    16    19 1   
    28    17    42 1   
    29    17    43 1   
    30    17    44 1   
    31    18    45 1   
    32    18    46 1   
    33    18    47 1   
    34    19    48 1   
    35    19    49 1   
    36    19    50 1   
    37    20    21 ar  
    38    20    51 1   
    39    21    52 1   
    40    22    23 1   
    41    22    28 1   
    42    22    53 1   
    43    23    24 1   
    44    23    54 1   
    45    24    25 1   
    46    24    55 1   
    47    24    56 1   
    48    25    26 1   
    49    25    27 1   
    50    28    29 ar  
    51    28    33 ar  
    52    29    30 ar  
    53    29    57 1   
    54    30    31 ar  
    55    30    34 1   
    56    31    32 ar  
    57    31    37 1   
    58    32    33 ar  
    59    32    58 1   
    60    33    59 1   
    61    34    35 1   
    62    35    36 1   
    63    35    60 1   
    64    35    61 1   
    65    36    37 1   
    66    36    62 1   
    67    36    63 1   
@<TRIPOS>SUBSTRUCTURE
     1 K5S         1 TEMP              0 ****  ****    0 ROOT
