@<TRIPOS>MOLECULE
K5T
   95    94     1     0     0
SMALL
abcg2


@<TRIPOS>ATOM
      1 C10         -8.8450     0.0850    -0.1960 c          1 K5T       0.590100
      2 N12        -11.2530    -0.0070    -0.0430 ns         1 K5T      -0.492900
      3 C13        -12.4820     0.2470     0.4140 c          1 K5T       0.590100
      4 C17        -17.2610     0.0430     0.3460 c3         1 K5T       0.072800
      5 C24          7.1620     5.9060     1.3880 c3         1 K5T      -0.080100
      6 C28          7.7360     5.1230     0.2090 c3         1 K5T      -0.044300
      7 C01          0.7520     1.0320    -0.3260 c3         1 K5T       0.102000
      8 N02         -0.5430     1.4390     0.1840 ns         1 K5T      -0.495900
      9 C03         -1.6910     0.9070    -0.2400 c          1 K5T       0.585100
     10 C04         -2.9330     1.4500     0.4510 c3         1 K5T       0.015000
     11 N05         -4.0990     0.8060    -0.0860 ns         1 K5T      -0.487900
     12 C06         -5.3250     1.0330     0.3880 c          1 K5T       0.590100
     13 O07         -5.5640     1.8130     1.2980 o          1 K5T      -0.619100
     14 C08         -6.4200     0.2290    -0.2950 c3         1 K5T       0.019000
     15 N09         -7.6980     0.6170     0.2340 ns         1 K5T      -0.491900
     16 C11        -10.0820     0.6120     0.5120 c3         1 K5T       0.020000
     17 C14        -13.5850    -0.5260    -0.2880 c3         1 K5T       0.026000
     18 N15        -14.8640    -0.0930     0.1980 ns         1 K5T      -0.509900
     19 C16        -16.0210    -0.5710    -0.2850 c          1 K5T       0.598100
     20 N18        -18.4680    -0.5870    -0.1360 n8         1 K5T      -0.974200
     21 O19        -16.0690    -1.4090    -1.1730 o          1 K5T      -0.589100
     22 O20        -12.7110     1.0290     1.3260 o          1 K5T      -0.620100
     23 O21         -8.9080    -0.7550    -1.0820 o          1 K5T      -0.615100
     24 O22         -1.7570     0.0510    -1.1120 o          1 K5T      -0.615100
     25 C23          1.8610     1.8260     0.3420 c3         1 K5T      -0.098400
     26 C27          7.9110     6.0490    -1.0200 c          1 K5T       0.717000
     27 N29          6.8960     4.0060    -0.1580 ns         1 K5T      -0.454900
     28 C31          6.7590     2.8800     0.5430 c          1 K5T       0.581100
     29 O32          7.9890     0.5950    -0.9450 o          1 K5T      -0.581100
     30 C35         10.2740    -4.0060    -0.4080 c          1 K5T       0.597100
     31 C37          5.2830    -5.7950     0.7400 c3         1 K5T      -0.085100
     32 N38          6.6310    -7.7580     0.2190 n8         1 K5T      -0.986200
     33 C39          6.5140    -6.3320     0.0090 c3         1 K5T       0.091500
     34 C40          7.7430    -5.5380     0.4580 c          1 K5T       0.559100
     35 N41          7.8700    -4.3210    -0.0990 ns         1 K5T      -0.481900
     36 C42          8.9800    -3.4560     0.1990 c3         1 K5T       0.024700
     37 C43          8.7100    -2.0550    -0.3540 c3         1 K5T      -0.073400
     38 C44          7.5530    -1.3800     0.3640 c3         1 K5T      -0.160400
     39 N46          6.0970     0.5410     0.2630 ns         1 K5T      -0.489900
     40 C47          5.7400     1.8990    -0.0480 c3         1 K5T       0.026700
     41 C48          4.3470     2.2260     0.4910 c3         1 K5T      -0.088400
     42 C49          3.2380     1.4050    -0.1550 c3         1 K5T      -0.072400
     43 H1         -11.1130    -0.6570    -0.8030 hn         1 K5T       0.348500
     44 H2         -17.1970    -0.0940     1.4290 h1         1 K5T       0.043700
     45 H3         -17.2110     1.1290     0.1800 h1         1 K5T       0.043700
     46 H4           7.8180     6.7350     1.6510 hc         1 K5T       0.024033
     47 H5           6.1800     6.3140     1.1410 hc         1 K5T       0.024033
     48 H6           7.0540     5.2710     2.2660 hc         1 K5T       0.024033
     49 H7           8.7260     4.7470     0.4900 h1         1 K5T       0.055700
     50 H8           0.9000    -0.0370    -0.1470 h1         1 K5T       0.054700
     51 H9           0.7880     1.1820    -1.4080 h1         1 K5T       0.054700
     52 H10         -0.5690     2.1320     0.9150 hn         1 K5T       0.319500
     53 H11         -2.8480     1.2760     1.5270 h1         1 K5T       0.069700
     54 H12         -2.9780     2.5340     0.3100 h1         1 K5T       0.069700
     55 H13         -3.9540     0.1530    -0.8420 hn         1 K5T       0.349500
     56 H14         -6.3720     0.3960    -1.3750 h1         1 K5T       0.073700
     57 H15         -6.2310    -0.8370    -0.1320 h1         1 K5T       0.073700
     58 H16         -7.6980     1.2980     0.9790 hn         1 K5T       0.347500
     59 H17         -9.9950     0.4050     1.5820 h1         1 K5T       0.072200
     60 H18        -10.1200     1.7000     0.4050 h1         1 K5T       0.072200
     61 H19        -13.5000    -0.3760    -1.3680 h1         1 K5T       0.069700
     62 H20        -13.4310    -1.5950    -0.1100 h1         1 K5T       0.069700
     63 H21        -14.8650     0.5910     0.9400 hn         1 K5T       0.338500
     64 H22        -19.2580    -0.1880     0.3540 hn         1 K5T       0.401000
     65 H24        -18.6050    -0.3660    -1.1130 hn         1 K5T       0.401000
     66 H25          1.7140     2.8940     0.1500 hc         1 K5T       0.046200
     67 H26          1.8070     1.6900     1.4260 hc         1 K5T       0.046200
     68 H28          6.4450     4.1070    -1.0580 hn         1 K5T       0.342500
     69 H29         11.3460    -3.1910     1.1470 hn         1 K5T       0.315000
     70 H30         12.2910    -3.9340    -0.0810 hn         1 K5T       0.315000
     71 H32          5.1410    -4.7290     0.5620 hc         1 K5T       0.043700
     72 H33          4.3910    -6.3190     0.3990 hc         1 K5T       0.043700
     73 H34          7.4150    -8.1230    -0.3080 hn         1 K5T       0.407500
     74 H35          6.8460    -7.9400     1.1920 hn         1 K5T       0.407500
     75 H37          6.3740    -6.1610    -1.0630 h1         1 K5T       0.068700
     76 H38          7.2900    -4.0880    -0.8910 hn         1 K5T       0.323500
     77 H39          9.0950    -3.3890     1.2850 h1         1 K5T       0.074700
     78 H40          9.6130    -1.4540    -0.2460 hc         1 K5T       0.074200
     79 H41          8.5100    -2.1280    -1.4270 hc         1 K5T       0.074200
     80 H42          6.6470    -1.9900     0.3150 hc         1 K5T       0.055700
     81 H43          7.7860    -1.2810     1.4300 hc         1 K5T       0.055700
     82 H44          5.5710     0.0540     0.9720 hn         1 K5T       0.305500
     83 H45          5.7200     2.0210    -1.1370 h1         1 K5T       0.078700
     84 H46          4.3330     2.0920     1.5780 hc         1 K5T       0.059200
     85 H47          4.1590     3.2870     0.3090 hc         1 K5T       0.059200
     86 H48          3.3810     0.3400     0.0460 hc         1 K5T       0.043700
     87 H49          3.2910     1.5240    -1.2420 hc         1 K5T       0.043700
     88 O26          7.2500     5.7730    -2.0420 o          1 K5T      -0.723500
     89 C45          7.2500     0.0020    -0.1730 c          1 K5T       0.597100
     90 O34         10.2730    -4.6420    -1.4490 o          1 K5T      -0.609100
     91 O36          8.5260    -5.9550     1.2980 o          1 K5T      -0.617100
     92 O30          7.3420     2.6440     1.5930 o          1 K5T      -0.653100
     93 O25          8.6910     7.0040    -0.8650 o          1 K5T      -0.723500
     94 N33         11.3820    -3.6850     0.2710 nt         1 K5T      -0.601000
     95 H31          5.3750    -5.9460     1.8170 hc         1 K5T       0.043700
@<TRIPOS>BOND
     1     1    15 1   
     2     1    16 1   
     3     1    23 2   
     4     2     3 1   
     5     2    16 1   
     6     2    43 1   
     7     3    17 1   
     8     3    22 2   
     9     4    19 1   
    10     4    20 1   
    11     4    44 1   
    12     4    45 1   
    13     5     6 1   
    14     5    46 1   
    15     5    47 1   
    16     5    48 1   
    17     6    26 1   
    18     6    27 1   
    19     6    49 1   
    20     7     8 1   
    21     7    25 1   
    22     7    50 1   
    23     7    51 1   
    24     8     9 1   
    25     8    52 1   
    26     9    10 1   
    27     9    24 2   
    28    10    11 1   
    29    10    53 1   
    30    10    54 1   
    31    11    12 1   
    32    11    55 1   
    33    12    13 2   
    34    12    14 1   
    35    14    15 1   
    36    14    56 1   
    37    14    57 1   
    38    15    58 1   
    39    16    59 1   
    40    16    60 1   
    41    17    18 1   
    42    17    61 1   
    43    17    62 1   
    44    18    19 1   
    45    18    63 1   
    46    19    21 2   
    47    20    64 1   
    48    20    65 1   
    49    25    42 1   
    50    25    66 1   
    51    25    67 1   
    52    26    88 1   
    53    26    93 1   
    54    27    28 1   
    55    27    68 1   
    56    28    40 1   
    57    28    92 2   
    58    29    89 2   
    59    30    36 1   
    60    30    90 2   
    61    30    94 1   
    62    31    33 1   
    63    31    71 1   
    64    31    72 1   
    65    31    95 1   
    66    32    33 1   
    67    32    73 1   
    68    32    74 1   
    69    33    34 1   
    70    33    75 1   
    71    34    35 1   
    72    34    91 2   
    73    35    36 1   
    74    35    76 1   
    75    36    37 1   
    76    36    77 1   
    77    37    38 1   
    78    37    78 1   
    79    37    79 1   
    80    38    80 1   
    81    38    81 1   
    82    38    89 1   
    83    39    40 1   
    84    39    82 1   
    85    39    89 1   
    86    40    41 1   
    87    40    83 1   
    88    41    42 1   
    89    41    84 1   
    90    41    85 1   
    91    42    86 1   
    92    42    87 1   
    93    69    94 1   
    94    70    94 1   
@<TRIPOS>SUBSTRUCTURE
     1 K5T         1 TEMP              0 ****  ****    0 ROOT
