@<TRIPOS>MOLECULE
K5T
   95    94     1     0     0
SMALL
No Charge or Current Charge


@<TRIPOS>ATOM
      1 C10         -8.7940     0.0240    -0.2650 c          1 K5T       0.590100
      2 N12        -11.3000    -0.0530    -0.1200 ns         1 K5T      -0.492900
      3 C13        -12.5780     0.2710     0.2760 c          1 K5T       0.590100
      4 C17        -17.5240    -0.1480     0.3200 c3         1 K5T       0.072800
      5 C24          7.5610     5.9460     1.9600 c3         1 K5T      -0.080100
      6 C28          8.0090     5.4200     0.5780 c3         1 K5T      -0.044300
      7 C01          1.1380     0.9820    -0.2750 c3         1 K5T       0.102000
      8 N02         -0.1880     1.3810     0.1960 ns         1 K5T      -0.495900
      9 C03         -1.3650     0.7990    -0.2180 c          1 K5T       0.585100
     10 C04         -2.6440     1.3910     0.4190 c3         1 K5T       0.015000
     11 N05         -3.8710     0.7200    -0.0700 ns         1 K5T      -0.487900
     12 C06         -5.1490     1.0440     0.3270 c          1 K5T       0.590100
     13 O07         -5.3650     1.9370     1.1380 o          1 K5T      -0.619100
     14 C08         -6.2700     0.2010    -0.3240 c3         1 K5T       0.019000
     15 N09         -7.6150     0.6030     0.1490 ns         1 K5T      -0.491900
     16 C11        -10.0740     0.6160     0.3700 c3         1 K5T       0.020000
     17 C14        -13.7010    -0.5710    -0.3760 c3         1 K5T       0.026000
     18 N15        -15.0470    -0.1700     0.0930 ns         1 K5T      -0.509900
     19 C16        -16.2270    -0.7510    -0.3220 c          1 K5T       0.598100
     20 N18        -18.7800    -0.9770     0.2680 n8         1 K5T      -0.974200
     21 O19        -16.2380    -1.6660    -1.1370 o          1 K5T      -0.589100
     22 O20        -12.7930     1.1650     1.0870 o          1 K5T      -0.620100
     23 O21         -8.8100    -0.8930    -1.0770 o          1 K5T      -0.615100
     24 O22         -1.3840    -0.1190    -1.0300 o          1 K5T      -0.615100
     25 C23          2.2480     1.8440     0.3550 c3         1 K5T      -0.098400
     26 C27          8.0140     6.5570    -0.4920 c          1 K5T       0.717000
     27 N29          7.1650     4.2850     0.1330 ns         1 K5T      -0.454900
     28 C31          7.2530     2.9880     0.5990 c          1 K5T       0.581100
     29 O32          6.0320    -0.3400    -1.7100 o          1 K5T      -0.581100
     30 C35         10.2630    -3.9290    -0.6940 c          1 K5T       0.597100
     31 C37          4.7010    -5.8930     0.1130 c3         1 K5T      -0.085100
     32 N38          6.1480    -7.4760     1.3710 n8         1 K5T      -0.986200
     33 C39          6.1520    -6.3440     0.3850 c3         1 K5T       0.091500
     34 C40          7.0480    -5.1140     0.7800 c          1 K5T       0.559100
     35 N41          7.9430    -4.7030    -0.1880 ns         1 K5T      -0.481900
     36 C42          8.8860    -3.5660    -0.0570 c3         1 K5T       0.024700
     37 C43          8.2950    -2.2550    -0.6510 c3         1 K5T      -0.073400
     38 C44          6.9500    -1.8070    -0.0210 c3         1 K5T      -0.160400
     39 N46          6.6010     0.6020     0.2890 ns         1 K5T      -0.489900
     40 C47          6.2110     2.0000    -0.0060 c3         1 K5T       0.026700
     41 C48          4.7780     2.3090     0.5110 c3         1 K5T      -0.088400
     42 C49          3.6610     1.4470    -0.1240 c3         1 K5T      -0.072400
     43 H1         -11.2000    -0.8060    -0.7950 hn         1 K5T       0.348500
     44 H2         -17.3030     0.0720     1.3740 h1         1 K5T       0.043700
     45 H3         -17.7150     0.8110    -0.1810 h1         1 K5T       0.043700
     46 H4           8.2060     6.7720     2.2820 hc         1 K5T       0.024033
     47 H5           6.5280     6.3120     1.9210 hc         1 K5T       0.024033
     48 H6           7.6180     5.1560     2.7180 hc         1 K5T       0.024033
     49 H7           9.0420     5.0590     0.6660 h1         1 K5T       0.055700
     50 H8           1.3020    -0.0740    -0.0190 h1         1 K5T       0.054700
     51 H9           1.1710     1.0800    -1.3680 h1         1 K5T       0.054700
     52 H10         -0.2580     2.1350     0.8700 hn         1 K5T       0.319500
     53 H11         -2.5720     1.2790     1.5080 h1         1 K5T       0.069700
     54 H12         -2.6870     2.4600     0.1760 h1         1 K5T       0.069700
     55 H13         -3.7700    -0.0320    -0.7460 hn         1 K5T       0.349500
     56 H14         -6.2090     0.3260    -1.4120 h1         1 K5T       0.073700
     57 H15         -6.0940    -0.8550    -0.0800 h1         1 K5T       0.073700
     58 H16         -7.6810     1.3590     0.8250 hn         1 K5T       0.347500
     59 H17        -10.0020     0.5040     1.4590 h1         1 K5T       0.072200
     60 H18        -10.1160     1.6860     0.1280 h1         1 K5T       0.072200
     61 H19        -13.6380    -0.4460    -1.4650 h1         1 K5T       0.069700
     62 H20        -13.5250    -1.6270    -0.1330 h1         1 K5T       0.069700
     63 H21        -15.1150     0.5840     0.7700 hn         1 K5T       0.338500
     64 H22        -19.5760    -0.4200     0.6050 hn         1 K5T       0.401000
     65 H24        -19.0160    -1.1730    -0.7140 hn         1 K5T       0.401000
     66 H25          2.0660     2.8980     0.1100 hc         1 K5T       0.046200
     67 H26          2.1980     1.7530     1.4470 hc         1 K5T       0.046200
     68 H28          6.4480     4.4760    -0.5580 hn         1 K5T       0.342500
     69 H29         11.1050    -2.1790    -0.0180 hn         1 K5T       0.315000
     70 H30         12.1670    -3.2250    -0.9390 hn         1 K5T       0.315000
     71 H32          4.6800    -5.1220    -0.6670 hc         1 K5T       0.043700
     72 H33          4.0870    -6.7360    -0.2280 hc         1 K5T       0.043700
     73 H34          7.1120    -7.8030     1.5180 hn         1 K5T       0.407500
     74 H35          5.8890    -7.1040     2.2940 hn         1 K5T       0.407500
     75 H37          6.5520    -6.7390    -0.5590 h1         1 K5T       0.068700
     76 H38          7.9640    -5.2380    -1.0500 hn         1 K5T       0.323500
     77 H39          9.0850    -3.3980     1.0100 h1         1 K5T       0.074700
     78 H40          9.0210    -1.4430    -0.5250 hc         1 K5T       0.074200
     79 H41          8.1590    -2.3840    -1.7330 hc         1 K5T       0.074200
     80 H42          6.1830    -2.5540    -0.2530 hc         1 K5T       0.055700
     81 H43          7.0810    -1.7340     1.0650 hc         1 K5T       0.055700
     82 H44          7.0210     0.4080     1.1910 hn         1 K5T       0.305500
     83 H45          6.2320     2.1530    -1.0940 h1         1 K5T       0.078700
     84 H46          4.7570     2.1800     1.6010 hc         1 K5T       0.059200
     85 H47          4.5500     3.3650     0.3190 hc         1 K5T       0.059200
     86 H48          3.8300     0.3910     0.1190 hc         1 K5T       0.043700
     87 H49          3.7110     1.5390    -1.2160 hc         1 K5T       0.043700
     88 O26          6.9750     6.7940    -1.0940 o          1 K5T      -0.723500
     89 C45          6.4880    -0.4590    -0.5820 c          1 K5T       0.597100
     90 O34         10.4730    -4.9580    -1.3190 o          1 K5T      -0.609100
     91 O36          6.9910    -4.5810     1.8820 o          1 K5T      -0.617100
     92 O30          8.1000     2.6500     1.4210 o          1 K5T      -0.653100
     93 O25          9.0830     7.0830    -0.7670 o          1 K5T      -0.723500
     94 N33         11.2610    -3.0290    -0.5390 nt         1 K5T      -0.601000
     95 H31          4.2430    -5.4740     1.0180 hc         1 K5T       0.043700
@<TRIPOS>BOND
     1     1    15 1   
     2     1    16 1   
     3     1    23 2   
     4     2     3 1   
     5     2    16 1   
     6     2    43 1   
     7     3    17 1   
     8     3    22 2   
     9     4    19 1   
    10     4    20 1   
    11     4    44 1   
    12     4    45 1   
    13     5     6 1   
    14     5    46 1   
    15     5    47 1   
    16     5    48 1   
    17     6    26 1   
    18     6    27 1   
    19     6    49 1   
    20     7     8 1   
    21     7    25 1   
    22     7    50 1   
    23     7    51 1   
    24     8     9 1   
    25     8    52 1   
    26     9    10 1   
    27     9    24 2   
    28    10    11 1   
    29    10    53 1   
    30    10    54 1   
    31    11    12 1   
    32    11    55 1   
    33    12    13 2   
    34    12    14 1   
    35    14    15 1   
    36    14    56 1   
    37    14    57 1   
    38    15    58 1   
    39    16    59 1   
    40    16    60 1   
    41    17    18 1   
    42    17    61 1   
    43    17    62 1   
    44    18    19 1   
    45    18    63 1   
    46    19    21 2   
    47    20    64 1   
    48    20    65 1   
    49    25    42 1   
    50    25    66 1   
    51    25    67 1   
    52    26    88 1   
    53    26    93 1   
    54    27    28 1   
    55    27    68 1   
    56    28    40 1   
    57    28    92 2   
    58    29    89 2   
    59    30    36 1   
    60    30    90 2   
    61    30    94 1   
    62    31    33 1   
    63    31    71 1   
    64    31    72 1   
    65    31    95 1   
    66    32    33 1   
    67    32    73 1   
    68    32    74 1   
    69    33    34 1   
    70    33    75 1   
    71    34    35 1   
    72    34    91 2   
    73    35    36 1   
    74    35    76 1   
    75    36    37 1   
    76    36    77 1   
    77    37    38 1   
    78    37    78 1   
    79    37    79 1   
    80    38    80 1   
    81    38    81 1   
    82    38    89 1   
    83    39    40 1   
    84    39    82 1   
    85    39    89 1   
    86    40    41 1   
    87    40    83 1   
    88    41    42 1   
    89    41    84 1   
    90    41    85 1   
    91    42    86 1   
    92    42    87 1   
    93    69    94 1   
    94    70    94 1   
@<TRIPOS>SUBSTRUCTURE
     1 K5T         1 TEMP              0 ****  ****    0 ROOT
