@<TRIPOS>MOLECULE
K5V
   15    15     1     0     0
SMALL
abcg2


@<TRIPOS>ATOM
      1 C2           1.1330     0.3830     0.1050 ca         1 K5V       0.175100
      2 C3          -0.1000     1.0310     0.0850 ca         1 K5V      -0.215000
      3 C4          -1.2960     0.3010     0.0320 ca         1 K5V       0.321000
      4 C5          -1.2320    -1.0950     0.0110 ca         1 K5V      -0.211000
      5 C6           0.0030    -1.7230     0.0400 ca         1 K5V      -0.036000
      6 C1           1.1910    -1.0080     0.0850 ca         1 K5V      -0.245000
      7 N4          -2.5060     0.9630     0.0650 nv         1 K5V      -1.071000
      8 O2           2.2340     1.1660     0.1230 oh         1 K5V      -0.540100
      9 H1          -0.1560     2.1140     0.0890 ha         1 K5V       0.125000
     10 H2          -2.1370    -1.6890    -0.0490 ha         1 K5V       0.114000
     11 H3           0.0560    -2.8040     0.0450 ha         1 K5V       0.108000
     12 H4           2.1350    -1.5390     0.1050 ha         1 K5V       0.114000
     13 H5          -2.5010     1.9120    -0.2710 hn         1 K5V       0.448500
     14 H6          -3.2910     0.4460    -0.2970 hn         1 K5V       0.448500
     15 H7           3.0090     0.6630     0.3980 ho         1 K5V       0.465000
@<TRIPOS>BOND
     1     1     2 ar  
     2     1     6 ar  
     3     1     8 1   
     4     2     3 ar  
     5     2     9 1   
     6     3     4 ar  
     7     3     7 1   
     8     4     5 ar  
     9     4    10 1   
    10     5     6 ar  
    11     5    11 1   
    12     6    12 1   
    13     7    13 1   
    14     7    14 1   
    15     8    15 1   
@<TRIPOS>SUBSTRUCTURE
     1 K5V         1 TEMP              0 ****  ****    0 ROOT
