@<TRIPOS>MOLECULE
K5W
   17    17     1     0     0
SMALL
No Charge or Current Charge


@<TRIPOS>ATOM
      1 O1         -27.7060     1.5480    18.2190 o          1 K5W      -0.531500
      2 C1         -25.4500     2.6720    15.2320 ca         1 K5W      -0.008000
      3 C2         -25.2070     3.7770    14.3970 ca         1 K5W      -0.121000
      4 C3         -26.1610     4.8030    14.2860 ca         1 K5W      -0.082000
      5 C4         -27.3610     4.7210    15.0110 ca         1 K5W       0.121000
      6 C5         -27.6110     3.6170    15.8510 ca         1 K5W       0.225000
      7 N          -28.0140     0.2880    16.1740 n8         1 K5W      -1.073100
      8 C          -26.6530     2.5870    15.9690 ca         1 K5W      -0.283500
      9 O          -25.7690     0.3170    17.0990 o          1 K5W      -0.531500
     10 F1         -28.7840     3.5600    16.5260 f          1 K5W      -0.139000
     11 S          -26.9490     1.1750    17.0280 sy         1 K5W       1.176600
     12 H1         -24.6980     1.8860    15.3020 ha         1 K5W       0.136000
     13 H2         -24.2780     3.8360    13.8340 ha         1 K5W       0.126000
     14 H3         -25.9750     5.6580    13.6400 ha         1 K5W       0.139000
     15 H4         -27.5550    -0.6190    16.2220 hn         1 K5W       0.500000
     16 H5         -28.7450     0.1890    16.8750 hn         1 K5W       0.500000
     17 F          -28.2760     5.7110    14.8930 f          1 K5W      -0.155000
@<TRIPOS>BOND
     1     1    11 2   
     2     2     3 ar  
     3     2     8 ar  
     4     2    12 1   
     5     3     4 ar  
     6     3    13 1   
     7     4     5 ar  
     8     4    14 1   
     9     5     6 ar  
    10     5    17 1   
    11     6     8 ar  
    12     6    10 1   
    13     7    11 1   
    14     7    15 1   
    15     7    16 1   
    16     8    11 1   
    17     9    11 2   
@<TRIPOS>SUBSTRUCTURE
     1 K5W         1 TEMP              0 ****  ****    0 ROOT
