@<TRIPOS>MOLECULE
K5W
   17    17     1     0     0
SMALL
abcg2


@<TRIPOS>ATOM
      1 O1         -28.9300     1.2880    16.9150 o          1 K5W      -0.531500
      2 C1         -26.1560     2.3930    14.7990 ca         1 K5W      -0.008000
      3 C2         -25.7650     3.4620    14.0050 ca         1 K5W      -0.121000
      4 C3         -26.1380     4.7580    14.3290 ca         1 K5W      -0.082000
      5 C4         -26.9050     4.9750    15.4560 ca         1 K5W       0.121000
      6 C5         -27.3010     3.9180    16.2540 ca         1 K5W       0.225000
      7 N          -26.8650    -0.0260    16.3230 n8         1 K5W      -1.073100
      8 C          -26.9280     2.6240    15.9280 ca         1 K5W      -0.283500
      9 O          -26.8340     1.5270    18.2890 o          1 K5W      -0.531500
     10 F1         -28.0390     4.1570    17.3360 f          1 K5W      -0.139000
     11 S          -27.4810     1.3180    17.0050 sy         1 K5W       1.176600
     12 H1         -25.8660     1.3850    14.5430 ha         1 K5W       0.136000
     13 H2         -25.1630     3.2830    13.1250 ha         1 K5W       0.126000
     14 H3         -25.8380     5.5970    13.7160 ha         1 K5W       0.139000
     15 H4         -26.1690    -0.5110    16.8740 hn         1 K5W       0.500000
     16 H5         -27.5340    -0.6310    15.8660 hn         1 K5W       0.500000
     17 F          -27.2780     6.2080    15.7960 f          1 K5W      -0.155000
@<TRIPOS>BOND
     1     1    11 2   
     2     2     3 ar  
     3     2     8 ar  
     4     2    12 1   
     5     3     4 ar  
     6     3    13 1   
     7     4     5 ar  
     8     4    14 1   
     9     5     6 ar  
    10     5    17 1   
    11     6     8 ar  
    12     6    10 1   
    13     7    11 1   
    14     7    15 1   
    15     7    16 1   
    16     8    11 1   
    17     9    11 2   
@<TRIPOS>SUBSTRUCTURE
     1 K5W         1 TEMP              0 ****  ****    0 ROOT
