@<TRIPOS>MOLECULE
K5Y
   67    68     1     0     0
SMALL
No Charge or Current Charge


@<TRIPOS>ATOM
      1 CAG         11.6800     1.2710     0.7960 ca         1 K5Y      -0.107500
      2 CAE         12.9720     1.5190     0.3010 ca         1 K5Y      -0.109000
      3 CAD         13.6750     0.5040    -0.3700 ca         1 K5Y      -0.112000
      4 CAF         13.0850    -0.7590    -0.5460 ca         1 K5Y      -0.109000
      5 CAH         11.7920    -1.0070    -0.0510 ca         1 K5Y      -0.107500
      6 CAZ         11.0840     0.0060     0.6240 ca         1 K5Y      -0.079300
      7 CAV          9.6820    -0.2600     1.1560 c3         1 K5Y      -0.030100
      8 CAQ          8.5930     0.0740     0.1140 c3         1 K5Y      -0.073400
      9 CAP          7.1590    -0.1870     0.6270 c3         1 K5Y      -0.081400
     10 CAU          6.0790     0.1480    -0.4190 c3         1 K5Y       0.164600
     11 OAY          4.7990    -0.1330     0.1700 os         1 K5Y      -0.462000
     12 CAT          3.6800     0.1310    -0.6900 c3         1 K5Y       0.164600
     13 CAO          2.3980    -0.2210     0.0870 c3         1 K5Y      -0.080400
     14 CAM          1.1110     0.0200    -0.7340 c3         1 K5Y      -0.073400
     15 CAL         -0.1770    -0.3320     0.0420 c3         1 K5Y      -0.073400
     16 CAN         -1.4630    -0.0900    -0.7790 c3         1 K5Y      -0.081400
     17 CAS         -2.7450    -0.4420    -0.0000 c3         1 K5Y       0.168800
     18 NAX         -3.9300    -0.1820    -0.8370 n7         1 K5Y      -0.894400
     19 CAW         -5.2400    -0.4760    -0.1810 c3         1 K5Y       0.116800
     20 CBD         -6.4090     0.0870    -1.0350 c3         1 K5Y       0.228600
     21 OAC         -5.9280     1.3020    -1.6020 oh         1 K5Y      -0.662000
     22 CBB         -7.6950     0.3190    -0.2420 ca         1 K5Y      -0.129300
     23 CAK         -8.8550    -0.4230    -0.5490 ca         1 K5Y      -0.036000
     24 CAJ         -7.7400     1.2700     0.7970 ca         1 K5Y      -0.044000
     25 CAI         -8.9270     1.4690     1.5190 ca         1 K5Y      -0.153000
     26 CBA        -10.0730     0.7230     1.2120 ca         1 K5Y       0.146100
     27 OAB        -11.2060     0.9140     1.9370 oh         1 K5Y      -0.541100
     28 CBC        -10.0520    -0.2330     0.1730 ca         1 K5Y      -0.183300
     29 CAR        -11.2910    -1.0360    -0.2360 c3         1 K5Y       0.216900
     30 OAA        -12.1000    -1.3900     0.8940 oh         1 K5Y      -0.651000
     31 H1          11.1420     2.0630     1.3120 ha         1 K5Y       0.110000
     32 H2          13.4280     2.4970     0.4370 ha         1 K5Y       0.111000
     33 H3          14.6750     0.6950    -0.7530 ha         1 K5Y       0.112000
     34 H4          13.6270    -1.5450    -1.0660 ha         1 K5Y       0.111000
     35 H5          11.3410    -1.9860    -0.1930 ha         1 K5Y       0.110000
     36 H6           9.5860    -1.3120     1.4530 hc         1 K5Y       0.047700
     37 H7           9.5050     0.3300     2.0640 hc         1 K5Y       0.047700
     38 H8           8.6870     1.1280    -0.1760 hc         1 K5Y       0.042700
     39 H9           8.7680    -0.5230    -0.7900 hc         1 K5Y       0.042700
     40 H10          7.0640    -1.2420     0.9140 hc         1 K5Y       0.051700
     41 H11          6.9830     0.4120     1.5280 hc         1 K5Y       0.051700
     42 H12          6.1520     1.2080    -0.6980 h1         1 K5Y       0.019200
     43 H13          6.2350    -0.4620    -1.3180 h1         1 K5Y       0.019200
     44 H14          3.6560     1.1900    -0.9810 h1         1 K5Y       0.018700
     45 H15          3.7380    -0.4800    -1.6010 h1         1 K5Y       0.018700
     46 H16          2.4410    -1.2740     0.3900 hc         1 K5Y       0.052200
     47 H17          2.3600     0.3790     1.0040 hc         1 K5Y       0.052200
     48 H18          1.0720     1.0740    -1.0400 hc         1 K5Y       0.038700
     49 H19          1.1540    -0.5780    -1.6530 hc         1 K5Y       0.038700
     50 H20         -0.1370    -1.3850     0.3480 hc         1 K5Y       0.040200
     51 H21         -0.2190     0.2670     0.9610 hc         1 K5Y       0.040200
     52 H22         -1.5040     0.9630    -1.0820 hc         1 K5Y       0.045700
     53 H23         -1.4220    -0.6900    -1.6970 hc         1 K5Y       0.045700
     54 H24         -2.7090    -1.4990     0.2960 h1         1 K5Y       0.032200
     55 H25         -2.7850     0.1630     0.9160 h1         1 K5Y       0.032200
     56 H26         -3.8510    -0.7740    -1.6770 hn         1 K5Y       0.414000
     57 H28         -5.3790    -1.5560    -0.0330 h1         1 K5Y       0.045200
     58 H29         -5.2720    -0.0040     0.8100 h1         1 K5Y       0.045200
     59 H30         -6.6080    -0.6300    -1.8440 h1         1 K5Y       0.034700
     60 H31         -4.9510     1.1700    -1.4780 ho         1 K5Y       0.470000
     61 H32         -8.8270    -1.1500    -1.3590 ha         1 K5Y       0.128000
     62 H33         -6.8570     1.8560     1.0420 ha         1 K5Y       0.127000
     63 H34         -8.9560     2.2020     2.3220 ha         1 K5Y       0.129000
     64 H35        -11.7850     0.1450     1.7010 ho         1 K5Y       0.462000
     65 H36        -11.8800    -0.4400    -0.9450 h1         1 K5Y       0.017200
     66 H37        -10.9730    -1.9470    -0.7600 h1         1 K5Y       0.017200
     67 H38        -12.7720    -2.0300     0.5670 ho         1 K5Y       0.447000
@<TRIPOS>BOND
     1     1     2 ar  
     2     1     6 ar  
     3     1    31 1   
     4     2     3 ar  
     5     2    32 1   
     6     3     4 ar  
     7     3    33 1   
     8     4     5 ar  
     9     4    34 1   
    10     5     6 ar  
    11     5    35 1   
    12     6     7 1   
    13     7     8 1   
    14     7    36 1   
    15     7    37 1   
    16     8     9 1   
    17     8    38 1   
    18     8    39 1   
    19     9    10 1   
    20     9    40 1   
    21     9    41 1   
    22    10    11 1   
    23    10    42 1   
    24    10    43 1   
    25    11    12 1   
    26    12    13 1   
    27    12    44 1   
    28    12    45 1   
    29    13    14 1   
    30    13    46 1   
    31    13    47 1   
    32    14    15 1   
    33    14    48 1   
    34    14    49 1   
    35    15    16 1   
    36    15    50 1   
    37    15    51 1   
    38    16    17 1   
    39    16    52 1   
    40    16    53 1   
    41    17    18 1   
    42    17    54 1   
    43    17    55 1   
    44    18    19 1   
    45    18    56 1   
    46    19    20 1   
    47    19    57 1   
    48    19    58 1   
    49    20    21 1   
    50    20    22 1   
    51    20    59 1   
    52    21    60 1   
    53    22    23 ar  
    54    22    24 ar  
    55    23    28 ar  
    56    23    61 1   
    57    24    25 ar  
    58    24    62 1   
    59    25    26 ar  
    60    25    63 1   
    61    26    27 1   
    62    26    28 ar  
    63    27    64 1   
    64    28    29 1   
    65    29    30 1   
    66    29    65 1   
    67    29    66 1   
    68    30    67 1   
@<TRIPOS>SUBSTRUCTURE
     1 K5Y         1 TEMP              0 ****  ****    0 ROOT
