@<TRIPOS>MOLECULE
K5Y
   67    68     1     0     0
SMALL
abcg2


@<TRIPOS>ATOM
      1 CAG         11.4480     1.4240     0.3940 ca         1 K5Y      -0.107500
      2 CAE         12.6810     1.5960    -0.2200 ca         1 K5Y      -0.109000
      3 CAD         13.3890     0.4950    -0.6840 ca         1 K5Y      -0.112000
      4 CAF         12.8540    -0.7770    -0.5280 ca         1 K5Y      -0.109000
      5 CAH         11.6200    -0.9430     0.0870 ca         1 K5Y      -0.107500
      6 CAZ         10.9000     0.1530     0.5570 ca         1 K5Y      -0.079300
      7 CAV          9.5470    -0.0270     1.1880 c3         1 K5Y      -0.030100
      8 CAQ          8.4190    -0.0110     0.1550 c3         1 K5Y      -0.073400
      9 CAP          7.0470    -0.1740     0.7980 c3         1 K5Y      -0.081400
     10 CAU          5.9350    -0.1360    -0.2310 c3         1 K5Y       0.164600
     11 OAY          4.6930    -0.2810     0.4150 os         1 K5Y      -0.462000
     12 CAT          3.5990    -0.2060    -0.4670 c3         1 K5Y       0.164600
     13 CAO          2.3090    -0.3680     0.3110 c3         1 K5Y      -0.080400
     14 CAM          1.0820    -0.2490    -0.5850 c3         1 K5Y      -0.073400
     15 CAL         -0.2250    -0.4130     0.1800 c3         1 K5Y      -0.073400
     16 CAN         -1.4540    -0.2400    -0.7030 c3         1 K5Y      -0.081400
     17 CAS         -2.7550    -0.4060     0.0650 c3         1 K5Y       0.168800
     18 NAX         -3.9020    -0.1690    -0.7920 n7         1 K5Y      -0.894400
     19 CAW         -5.1900    -0.2540    -0.1290 c3         1 K5Y       0.116800
     20 CBD         -6.2340     0.4550    -0.9980 c3         1 K5Y       0.228600
     21 OAC         -5.7390     1.7200    -1.3620 oh         1 K5Y      -0.662000
     22 CBB         -7.5450     0.5940    -0.2730 ca         1 K5Y      -0.129300
     23 CAK         -8.5850    -0.2930    -0.5230 ca         1 K5Y      -0.036000
     24 CAJ         -7.7330     1.5810     0.6890 ca         1 K5Y      -0.044000
     25 CAI         -8.9290     1.6700     1.3800 ca         1 K5Y      -0.153000
     26 CBA         -9.9600     0.7720     1.1220 ca         1 K5Y       0.146100
     27 OAB        -11.0990     0.9290     1.8350 oh         1 K5Y      -0.541100
     28 CBC         -9.7950    -0.2290     0.1590 ca         1 K5Y      -0.183300
     29 CAR        -10.9230    -1.1880    -0.1220 c3         1 K5Y       0.216900
     30 OAA        -10.5300    -2.1230    -1.0900 oh         1 K5Y      -0.651000
     31 H1          10.9060     2.2900     0.7580 ha         1 K5Y       0.110000
     32 H2          13.0910     2.5920    -0.3340 ha         1 K5Y       0.111000
     33 H3          14.3520     0.6280    -1.1620 ha         1 K5Y       0.112000
     34 H4          13.4000    -1.6430    -0.8810 ha         1 K5Y       0.111000
     35 H5          11.2130    -1.9400     0.2100 ha         1 K5Y       0.110000
     36 H6           9.5180    -0.9720     1.7370 hc         1 K5Y       0.047700
     37 H7           9.3740     0.7660     1.9190 hc         1 K5Y       0.047700
     38 H8           8.4570     0.9290    -0.4050 hc         1 K5Y       0.042700
     39 H9           8.5850    -0.8110    -0.5740 hc         1 K5Y       0.042700
     40 H10          7.0080    -1.1210     1.3450 hc         1 K5Y       0.051700
     41 H11          6.8910     0.6240     1.5310 hc         1 K5Y       0.051700
     42 H12          5.9720     0.8140    -0.7850 h1         1 K5Y       0.019200
     43 H13          6.0810    -0.9360    -0.9720 h1         1 K5Y       0.019200
     44 H14          3.5970     0.7590    -0.9960 h1         1 K5Y       0.018700
     45 H15          3.6710    -0.9860    -1.2400 h1         1 K5Y       0.018700
     46 H16          2.3050    -1.3410     0.8140 hc         1 K5Y       0.052200
     47 H17          2.2620     0.3940     1.0960 hc         1 K5Y       0.052200
     48 H18          1.0890     0.7260    -1.0850 hc         1 K5Y       0.038700
     49 H19          1.1330    -1.0000    -1.3810 hc         1 K5Y       0.038700
     50 H20         -0.2460    -1.4000     0.6540 hc         1 K5Y       0.040200
     51 H21         -0.2590     0.3170     0.9960 hc         1 K5Y       0.040200
     52 H22         -1.4400     0.7510    -1.1660 hc         1 K5Y       0.045700
     53 H23         -1.4200    -0.9660    -1.5230 hc         1 K5Y       0.045700
     54 H24         -2.7790    -1.4010     0.5350 h1         1 K5Y       0.032200
     55 H25         -2.7880     0.3210     0.8830 h1         1 K5Y       0.032200
     56 H26         -3.8810    -0.8210    -1.5690 hn         1 K5Y       0.414000
     57 H28         -5.5160    -1.2790     0.0910 h1         1 K5Y       0.045200
     58 H29         -5.1120     0.2680     0.8310 h1         1 K5Y       0.045200
     59 H30         -6.4010    -0.1650    -1.8940 h1         1 K5Y       0.034700
     60 H31         -4.7770     1.5850    -1.4190 ho         1 K5Y       0.470000
     61 H32         -8.4490    -1.0530    -1.2830 ha         1 K5Y       0.128000
     62 H33         -6.9460     2.2920     0.9040 ha         1 K5Y       0.127000
     63 H34         -9.0740     2.4400     2.1270 ha         1 K5Y       0.129000
     64 H35        -11.7660     0.2770     1.6020 ho         1 K5Y       0.462000
     65 H36        -11.2130    -1.6890     0.8140 h1         1 K5Y       0.017200
     66 H37        -11.8050    -0.6200    -0.4550 h1         1 K5Y       0.017200
     67 H38        -11.2730    -2.7100    -1.2550 ho         1 K5Y       0.447000
@<TRIPOS>BOND
     1     1     2 ar  
     2     1     6 ar  
     3     1    31 1   
     4     2     3 ar  
     5     2    32 1   
     6     3     4 ar  
     7     3    33 1   
     8     4     5 ar  
     9     4    34 1   
    10     5     6 ar  
    11     5    35 1   
    12     6     7 1   
    13     7     8 1   
    14     7    36 1   
    15     7    37 1   
    16     8     9 1   
    17     8    38 1   
    18     8    39 1   
    19     9    10 1   
    20     9    40 1   
    21     9    41 1   
    22    10    11 1   
    23    10    42 1   
    24    10    43 1   
    25    11    12 1   
    26    12    13 1   
    27    12    44 1   
    28    12    45 1   
    29    13    14 1   
    30    13    46 1   
    31    13    47 1   
    32    14    15 1   
    33    14    48 1   
    34    14    49 1   
    35    15    16 1   
    36    15    50 1   
    37    15    51 1   
    38    16    17 1   
    39    16    52 1   
    40    16    53 1   
    41    17    18 1   
    42    17    54 1   
    43    17    55 1   
    44    18    19 1   
    45    18    56 1   
    46    19    20 1   
    47    19    57 1   
    48    19    58 1   
    49    20    21 1   
    50    20    22 1   
    51    20    59 1   
    52    21    60 1   
    53    22    23 ar  
    54    22    24 ar  
    55    23    28 ar  
    56    23    61 1   
    57    24    25 ar  
    58    24    62 1   
    59    25    26 ar  
    60    25    63 1   
    61    26    27 1   
    62    26    28 ar  
    63    27    64 1   
    64    28    29 1   
    65    29    30 1   
    66    29    65 1   
    67    29    66 1   
    68    30    67 1   
@<TRIPOS>SUBSTRUCTURE
     1 K5Y         1 TEMP              0 ****  ****    0 ROOT
