@<TRIPOS>MOLECULE
K5Z
   35    36     1     0     0
SMALL
No Charge or Current Charge


@<TRIPOS>ATOM
      1 C10         20.8240   -22.7400    -7.3840 ca         1 K5Z      -0.099500
      2 C13         21.0170   -22.6000   -10.1780 ca         1 K5Z      -0.110500
      3 C17         24.8250   -20.4050    -5.0710 c3         1 K5Z       0.147800
      4 C02         21.7910   -20.1920    -5.8800 cc         1 K5Z      -0.174300
      5 C03         21.3480   -20.2650    -7.1920 cd         1 K5Z      -0.071000
      6 C04         20.9570   -18.9820    -7.6880 cd         1 K5Z      -0.083000
      7 C05         21.1080   -17.9360    -6.8090 cc         1 K5Z      -0.337900
      8 C06         20.7920   -16.5360    -6.9990 ce         1 K5Z       0.693800
      9 C09         21.1430   -21.5020    -7.9870 ca         1 K5Z      -0.018000
     10 C11         20.6200   -23.8920    -8.1640 ca         1 K5Z      -0.110500
     11 C12         20.7220   -23.8250    -9.5620 ca         1 K5Z      -0.106000
     12 C14         21.2180   -21.4470    -9.3980 ca         1 K5Z      -0.099500
     13 C16         23.6370   -20.8490    -4.1890 c3         1 K5Z      -0.075400
     14 N08         20.7040   -16.0540    -8.2440 nv         1 K5Z      -1.024200
     15 N07         20.4570   -15.7810    -6.0410 n2         1 K5Z      -0.845100
     16 N18         26.0030   -20.0530    -4.2550 n8         1 K5Z      -0.997200
     17 S01         21.6900   -18.5370    -5.2670 ss         1 K5Z       0.219000
     18 H101        20.6840   -22.8150    -6.3110 ha         1 K5Z       0.114000
     19 H131        21.0930   -22.5420   -11.2620 ha         1 K5Z       0.113500
     20 H151        21.6270   -21.6480    -4.3110 hc         1 K5Z       0.060200
     21 H152        22.7010   -22.1290    -5.6180 hc         1 K5Z       0.060200
     22 H172        25.1010   -21.2210    -5.7530 h1         1 K5Z       0.032200
     23 H171        24.5390   -19.5320    -5.6740 h1         1 K5Z       0.032200
     24 H041        20.5410   -18.8410    -8.6810 ha         1 K5Z       0.144000
     25 H111        20.3710   -24.8350    -7.6830 ha         1 K5Z       0.113500
     26 H121        20.5640   -24.7160   -10.1650 ha         1 K5Z       0.114000
     27 H141        21.4620   -20.5150    -9.9000 ha         1 K5Z       0.114000
     28 H161        23.3700   -20.0470    -3.4910 hc         1 K5Z       0.050700
     29 H162        23.9540   -21.7010    -3.5740 hc         1 K5Z       0.050700
     30 H082        20.6980   -15.0440    -8.2880 hn         1 K5Z       0.468000
     31 H071        20.4360   -16.3540    -5.1900 hn         1 K5Z       0.389400
     32 H4          26.7490   -19.7130    -4.8740 hn         1 K5Z       0.392000
     33 H3          25.7770   -19.2330    -3.6790 hn         1 K5Z       0.392000
     34 H081        21.2730   -16.5290    -8.9320 hn         1 K5Z       0.468000
     35 C15         22.3920   -21.2760    -5.0040 c3         1 K5Z      -0.016100
@<TRIPOS>BOND
     1     1     9 ar  
     2     1    10 ar  
     3     1    18 1   
     4     2    11 ar  
     5     2    12 ar  
     6     2    19 1   
     7     3    13 1   
     8     3    16 1   
     9     3    22 1   
    10     3    23 1   
    11     4     5 2   
    12     4    17 1   
    13     4    35 1   
    14     5     6 1   
    15     5     9 1   
    16     6     7 2   
    17     6    24 1   
    18     7     8 1   
    19     7    17 1   
    20     8    14 1   
    21     8    15 2   
    22     9    12 ar  
    23    10    11 ar  
    24    10    25 1   
    25    11    26 1   
    26    12    27 1   
    27    13    28 1   
    28    13    29 1   
    29    13    35 1   
    30    14    30 1   
    31    14    34 1   
    32    15    31 1   
    33    16    32 1   
    34    16    33 1   
    35    20    35 1   
    36    21    35 1   
@<TRIPOS>SUBSTRUCTURE
     1 K5Z         1 TEMP              0 ****  ****    0 ROOT
