@<TRIPOS>MOLECULE
K5Z
   35    36     1     0     0
SMALL
bcc


@<TRIPOS>ATOM
      1 C10         20.5910   -22.5670    -7.3730 ca         1 K5Z      -0.117500
      2 C13         21.8210   -22.5950    -9.8580 ca         1 K5Z      -0.128500
      3 C17         24.6510   -20.7300    -5.4750 c3         1 K5Z       0.147800
      4 C02         21.6430   -20.0800    -5.7300 cc         1 K5Z      -0.029400
      5 C03         21.2350   -20.1740    -7.0370 cd         1 K5Z      -0.071000
      6 C04         20.8220   -18.9160    -7.5650 cd         1 K5Z      -0.101000
      7 C05         20.9020   -17.8960    -6.6660 cc         1 K5Z      -0.193000
      8 C06         20.5170   -16.4840    -6.8410 ce         1 K5Z       0.693800
      9 C09         21.2240   -21.4120    -7.8350 ca         1 K5Z      -0.018000
     10 C11         20.5820   -23.7240    -8.1390 ca         1 K5Z      -0.128500
     11 C12         21.1990   -23.7420    -9.3830 ca         1 K5Z      -0.124000
     12 C14         21.8330   -21.4390    -9.0900 ca         1 K5Z      -0.117500
     13 C16         23.6360   -20.8040    -4.3450 c3         1 K5Z      -0.075400
     14 N08         20.5320   -16.0590    -8.1360 nv         1 K5Z      -0.913800
     15 N07         20.1500   -15.6990    -5.9010 n2         1 K5Z      -0.845100
     16 N18         25.9790   -20.4390    -4.9550 n8         1 K5Z      -0.886800
     17 S01         21.5090   -18.4620    -5.1570 ss         1 K5Z      -0.070800
     18 H101        20.0840   -22.5560    -6.4160 ha         1 K5Z       0.132000
     19 H131        22.3050   -22.6000   -10.8260 ha         1 K5Z       0.131500
     20 H151        21.5670   -21.2790    -3.9720 hc         1 K5Z       0.060200
     21 H152        22.2380   -22.0770    -5.3730 hc         1 K5Z       0.060200
     22 H172        24.6850   -21.7000    -5.9800 h1         1 K5Z       0.032200
     23 H171        24.3070   -20.0070    -6.2280 h1         1 K5Z       0.032200
     24 H041        20.4450   -18.7970    -8.5720 ha         1 K5Z       0.162000
     25 H111        20.0850   -24.6100    -7.7660 ha         1 K5Z       0.131500
     26 H121        21.1940   -24.6440    -9.9820 ha         1 K5Z       0.132000
     27 H141        22.3290   -20.5520    -9.4630 ha         1 K5Z       0.132000
     28 H161        23.6320   -19.8610    -3.7870 hc         1 K5Z       0.050700
     29 H162        23.9440   -21.5760    -3.6360 hc         1 K5Z       0.050700
     30 H082        20.3850   -15.0710    -8.2740 hn         1 K5Z       0.412800
     31 H071        20.0760   -16.1870    -5.0160 hn         1 K5Z       0.389400
     32 H4          26.6510   -20.4710    -5.7110 hn         1 K5Z       0.336800
     33 H3          26.0010   -19.4850    -4.6140 hn         1 K5Z       0.336800
     34 H081        21.2100   -16.4640    -8.7610 hn         1 K5Z       0.412800
     35 C15         22.2230   -21.1280    -4.8340 c3         1 K5Z      -0.016100
@<TRIPOS>BOND
     1     1     9 ar  
     2     1    10 ar  
     3     1    18 1   
     4     2    11 ar  
     5     2    12 ar  
     6     2    19 1   
     7     3    13 1   
     8     3    16 1   
     9     3    22 1   
    10     3    23 1   
    11     4     5 2   
    12     4    17 1   
    13     4    35 1   
    14     5     6 1   
    15     5     9 1   
    16     6     7 2   
    17     6    24 1   
    18     7     8 1   
    19     7    17 1   
    20     8    14 1   
    21     8    15 2   
    22     9    12 ar  
    23    10    11 ar  
    24    10    25 1   
    25    11    26 1   
    26    12    27 1   
    27    13    28 1   
    28    13    29 1   
    29    13    35 1   
    30    14    30 1   
    31    14    34 1   
    32    15    31 1   
    33    16    32 1   
    34    16    33 1   
    35    20    35 1   
    36    21    35 1   
@<TRIPOS>SUBSTRUCTURE
     1 K5Z         1 TEMP              0 ****  ****    0 ROOT
