@<TRIPOS>MOLECULE
K60
   81    85     1     0     0
SMALL
abcg2


@<TRIPOS>ATOM
      1 O10         -5.0080    -3.0720     0.2250 o          1 K60      -0.540500
      2 S8          -4.3920    -1.8780     0.7870 sy         1 K60       1.182600
      3 O9          -4.7170    -1.5180     2.1630 o          1 K60      -0.540500
      4 C5          -2.6330    -2.0190     0.6820 ca         1 K60      -0.294500
      5 C4          -1.8400    -1.4700     1.7010 ca         1 K60      -0.020000
      6 C3          -0.4850    -1.5400     1.5090 ca         1 K60       0.048100
      7 C2           0.0690    -2.1230     0.3770 ca         1 K60       0.107100
      8 O19          1.4080    -2.0650     0.4530 os         1 K60      -0.340100
      9 C18          1.7290    -1.3730     1.6550 c5         1 K60       0.373600
     10 O29          0.5000    -1.1180     2.3250 os         1 K60      -0.327100
     11 C7          -0.7060    -2.6720    -0.6170 ca         1 K60      -0.139000
     12 C6          -2.0900    -2.6110    -0.4480 ca         1 K60      -0.007000
     13 N11         -4.7200    -0.6470    -0.2510 n3         1 K60      -0.783500
     14 C12         -5.9210    -0.7170    -1.0840 c3         1 K60       0.232800
     15 C13         -7.2550    -0.6700    -0.3390 c3         1 K60      -0.094700
     16 C14         -7.3940     0.5610     0.5470 c3         1 K60      -0.087600
     17 C15         -8.3840    -0.7350    -1.3630 c3         1 K60      -0.087600
     18 C16         -4.0600     0.6300    -0.0150 c3         1 K60       0.192800
     19 C17         -2.8930     0.8640    -0.9740 c3         1 K60       0.136300
     20 O18         -3.3160     1.1120    -2.2940 oh         1 K60      -0.651000
     21 C19         -1.9350     1.9370    -0.4460 c3         1 K60       0.075700
     22 C32         -2.5560     3.3360    -0.3330 c3         1 K60      -0.045100
     23 C38         -1.6050     4.3050     0.3100 ca         1 K60      -0.090300
     24 C33         -0.7970     5.1380    -0.4580 ca         1 K60      -0.102000
     25 C34          0.1140     5.9970     0.1440 ca         1 K60      -0.102000
     26 C35          0.2270     6.0360     1.5270 ca         1 K60      -0.099000
     27 C36         -0.5780     5.2110     2.3030 ca         1 K60      -0.102000
     28 C37         -1.4840     4.3530     1.6970 ca         1 K60      -0.102000
     29 N20         -0.7530     1.9810    -1.2770 ns         1 K60      -0.488900
     30 C21          0.4840     1.7420    -0.8290 c          1 K60       0.591100
     31 O22          0.7760     1.4570     0.3190 o          1 K60      -0.574100
     32 C29          1.5630     1.7900    -1.9070 c5         1 K60       0.068300
     33 O28          2.7220     2.3810    -1.3460 os         1 K60      -0.386100
     34 C26          3.5840     1.4330    -0.9510 c          1 K60       0.710100
     35 O27          4.5700     1.6930    -0.3150 o          1 K60      -0.499000
     36 C25          2.0170     0.3780    -2.2890 c5         1 K60       0.074000
     37 N24          3.1600     0.2210    -1.4150 n          1 K60      -0.253400
     38 C43          3.8270    -0.9960    -1.2570 ca         1 K60       0.002000
     39 C44          3.6050    -2.0140    -2.1800 ca         1 K60      -0.128000
     40 C45          4.2130    -3.2490    -2.0190 ca         1 K60      -0.087000
     41 C40          5.0480    -3.4920    -0.9440 ca         1 K60      -0.083000
     42 C42          4.6660    -1.2340    -0.1670 ca         1 K60      -0.087000
     43 C41          5.2670    -2.4740    -0.0230 ca         1 K60      -0.170300
     44 C46          6.1510    -2.7570     1.1520 c3         1 K60       0.355300
     45 F1           5.6310    -3.7130     1.9360 f          1 K60      -0.111333
     46 F2           7.3580    -3.1950     0.7670 f          1 K60      -0.111333
     47 F3           6.3520    -1.6870     1.9250 f          1 K60      -0.111333
     48 H4          -2.2660    -1.0190     2.5860 ha         1 K60       0.159000
     49 H18          2.3670    -2.0010     2.2800 h2         1 K60       0.080200
     50 H18A         2.2240    -0.4300     1.4160 h2         1 K60       0.080200
     51 H7          -0.2700    -3.1330    -1.4920 ha         1 K60       0.135000
     52 H6          -2.7290    -3.0210    -1.2170 ha         1 K60       0.139000
     53 H12         -5.8520     0.1310    -1.7670 h1         1 K60       0.062200
     54 H12A        -5.8730    -1.6110    -1.7070 h1         1 K60       0.062200
     55 H13         -7.3240    -1.5600     0.2960 hc         1 K60       0.064700
     56 H14         -7.3270     1.4810    -0.0390 hc         1 K60       0.036867
     57 H14A        -8.3650     0.5640     1.0450 hc         1 K60       0.036867
     58 H14B        -6.6330     0.5980     1.3270 hc         1 K60       0.036867
     59 H15         -8.3130    -1.6280    -1.9860 hc         1 K60       0.036867
     60 H15A        -9.3570    -0.7510    -0.8700 hc         1 K60       0.036867
     61 H15B        -8.3610     0.1350    -2.0220 hc         1 K60       0.036867
     62 H16         -4.8030     1.4260    -0.1090 h1         1 K60       0.060200
     63 H16A        -3.7090     0.6950     1.0180 h1         1 K60       0.060200
     64 H17         -2.3130    -0.0590    -1.0280 h1         1 K60       0.091700
     65 HO18        -3.9040     1.8750    -2.3090 ho         1 K60       0.440000
     66 H19         -1.6090     1.6180     0.5470 h1         1 K60       0.096700
     67 H32         -2.8430     3.6990    -1.3230 hc         1 K60       0.050200
     68 H32A        -3.4720     3.2740     0.2590 hc         1 K60       0.050200
     69 H33         -0.8820     5.1200    -1.5380 ha         1 K60       0.106000
     70 H34          0.7340     6.6370    -0.4710 ha         1 K60       0.115500
     71 H35          0.9330     6.7070     1.9980 ha         1 K60       0.117000
     72 H36         -0.5010     5.2380     3.3830 ha         1 K60       0.115500
     73 H37         -2.1070     3.7130     2.3120 ha         1 K60       0.106000
     74 HN20        -0.8810     2.2280    -2.2470 hn         1 K60       0.320500
     75 H29          1.2580     2.3700    -2.7780 h1         1 K60       0.094700
     76 H25          1.2560    -0.3800    -2.1000 h1         1 K60       0.070700
     77 H25A         2.3000     0.3250    -3.3430 h1         1 K60       0.070700
     78 H44          2.9550    -1.8590    -3.0300 ha         1 K60       0.115000
     79 H45          4.0290    -4.0290    -2.7450 ha         1 K60       0.122000
     80 H40          5.5160    -4.4620    -0.8330 ha         1 K60       0.132000
     81 H42          4.8350    -0.4610     0.5660 ha         1 K60       0.158000
@<TRIPOS>BOND
     1     1     2 2   
     2     2     3 2   
     3     2     4 1   
     4     2    13 1   
     5     4     5 ar  
     6     4    12 ar  
     7     5     6 ar  
     8     5    48 1   
     9     6     7 ar  
    10     6    10 1   
    11     7     8 1   
    12     7    11 ar  
    13     8     9 1   
    14     9    10 1   
    15     9    49 1   
    16     9    50 1   
    17    11    12 ar  
    18    11    51 1   
    19    12    52 1   
    20    13    14 1   
    21    13    18 1   
    22    14    15 1   
    23    14    53 1   
    24    14    54 1   
    25    15    16 1   
    26    15    17 1   
    27    15    55 1   
    28    16    56 1   
    29    16    57 1   
    30    16    58 1   
    31    17    59 1   
    32    17    60 1   
    33    17    61 1   
    34    18    19 1   
    35    18    62 1   
    36    18    63 1   
    37    19    20 1   
    38    19    21 1   
    39    19    64 1   
    40    20    65 1   
    41    21    22 1   
    42    21    29 1   
    43    21    66 1   
    44    22    23 1   
    45    22    67 1   
    46    22    68 1   
    47    23    24 ar  
    48    23    28 ar  
    49    24    25 ar  
    50    24    69 1   
    51    25    26 ar  
    52    25    70 1   
    53    26    27 ar  
    54    26    71 1   
    55    27    28 ar  
    56    27    72 1   
    57    28    73 1   
    58    29    30 1   
    59    29    74 1   
    60    30    31 2   
    61    30    32 1   
    62    32    33 1   
    63    32    36 1   
    64    32    75 1   
    65    33    34 1   
    66    34    35 2   
    67    34    37 1   
    68    36    37 1   
    69    36    76 1   
    70    36    77 1   
    71    37    38 1   
    72    38    39 ar  
    73    38    42 ar  
    74    39    40 ar  
    75    39    78 1   
    76    40    41 ar  
    77    40    79 1   
    78    41    43 ar  
    79    41    80 1   
    80    42    43 ar  
    81    42    81 1   
    82    43    44 1   
    83    44    45 1   
    84    44    46 1   
    85    44    47 1   
@<TRIPOS>SUBSTRUCTURE
     1 K60         1 TEMP              0 ****  ****    0 ROOT
