@<TRIPOS>MOLECULE
K60
   81    85     1     0     0
SMALL
No Charge or Current Charge


@<TRIPOS>ATOM
      1 O10         -5.2910    -3.0890    -1.1940 o          1 K60      -0.540500
      2 S8          -4.6050    -2.3260    -0.1460 sy         1 K60       1.182600
      3 O9          -4.9610    -2.4480     1.2710 o          1 K60      -0.540500
      4 C5          -2.8410    -2.5970    -0.3670 ca         1 K60      -0.294500
      5 C4          -1.9840    -2.6580     0.7610 ca         1 K60      -0.020000
      6 C3          -0.6130    -2.8380     0.5350 ca         1 K60       0.048100
      7 C2          -0.1040    -2.9600    -0.7270 ca         1 K60       0.107100
      8 O19          1.2390    -3.1460    -0.7260 os         1 K60      -0.340100
      9 C18          1.5840    -2.9880     0.6950 c5         1 K60       0.373600
     10 O29          0.3470    -2.9310     1.4900 os         1 K60      -0.327100
     11 C7          -0.9210    -2.9180    -1.8610 ca         1 K60      -0.139000
     12 C6          -2.3080    -2.7330    -1.6760 ca         1 K60      -0.007000
     13 N11         -4.7840    -0.6840    -0.5810 n3         1 K60      -0.783500
     14 C12         -6.1740    -0.2220    -0.8360 c3         1 K60       0.232800
     15 C13         -7.1800    -0.2250     0.3580 c3         1 K60      -0.094700
     16 C14         -6.7530     0.6550     1.5590 c3         1 K60      -0.087600
     17 C15         -8.5910     0.1800    -0.1280 c3         1 K60      -0.087600
     18 C16         -3.8780     0.2940     0.0890 c3         1 K60       0.192800
     19 C17         -2.6080     0.6120    -0.7500 c3         1 K60       0.136300
     20 O18         -2.9890     0.6530    -2.1350 oh         1 K60      -0.651000
     21 C19         -1.8410     1.9020    -0.3340 c3         1 K60       0.075700
     22 C32         -2.6220     3.2320    -0.5300 c3         1 K60      -0.045100
     23 C38         -1.7920     4.4600    -0.1700 ca         1 K60      -0.090300
     24 C33         -1.2380     5.2700    -1.1810 ca         1 K60      -0.102000
     25 C34         -0.4590     6.3910    -0.8460 ca         1 K60      -0.102000
     26 C35         -0.2300     6.7100     0.5030 ca         1 K60      -0.099000
     27 C36         -0.7800     5.9070     1.5160 ca         1 K60      -0.102000
     28 C37         -1.5580     4.7850     1.1810 ca         1 K60      -0.102000
     29 N20         -0.5550     1.9580    -1.0450 ns         1 K60      -0.488900
     30 C21          0.6830     2.0500    -0.4390 c          1 K60       0.591100
     31 O22          0.8350     2.1060     0.7740 o          1 K60      -0.574100
     32 C29          1.7900     2.1360    -1.5340 c5         1 K60       0.068300
     33 O28          2.9980     2.7400    -0.9890 os         1 K60      -0.386100
     34 C26          3.8090     1.7580    -0.5000 c          1 K60       0.710100
     35 O27          4.8410     1.9640     0.1210 o          1 K60      -0.499000
     36 C25          2.2130     0.6850    -1.8980 c5         1 K60       0.074000
     37 N24          3.3630     0.5250    -0.9970 n          1 K60      -0.253400
     38 C43          3.9380    -0.7650    -0.7090 ca         1 K60       0.002000
     39 C44          4.0140    -1.7290    -1.7340 ca         1 K60      -0.128000
     40 C45          4.6650    -2.9540    -1.5190 ca         1 K60      -0.087000
     41 C40          5.2930    -3.2130    -0.2920 ca         1 K60      -0.083000
     42 C42          4.6410    -1.0060     0.4930 ca         1 K60      -0.087000
     43 C41          5.3020    -2.2330     0.7220 ca         1 K60      -0.170300
     44 C46          5.9960    -2.4930     2.0640 c3         1 K60       0.355300
     45 F1           5.1100    -2.8910     3.0040 f          1 K60      -0.111333
     46 F2           6.9460    -3.4540     1.9850 f          1 K60      -0.111333
     47 F3           6.6090    -1.3850     2.5430 f          1 K60      -0.111333
     48 H4          -2.3620    -2.5640     1.7770 ha         1 K60       0.159000
     49 H18          2.2050    -3.8290     1.0250 h2         1 K60       0.080200
     50 H18A         2.1280    -2.0470     0.8270 h2         1 K60       0.080200
     51 H7          -0.4980    -3.0220    -2.8570 ha         1 K60       0.135000
     52 H6          -2.9620    -2.6850    -2.5450 ha         1 K60       0.139000
     53 H12         -6.1430     0.7970    -1.2450 h1         1 K60       0.062200
     54 H12A        -6.6090    -0.8430    -1.6310 h1         1 K60       0.062200
     55 H13         -7.2680    -1.2540     0.7240 hc         1 K60       0.064700
     56 H14         -6.5770     1.6910     1.2440 hc         1 K60       0.036867
     57 H14A        -7.5350     0.6630     2.3290 hc         1 K60       0.036867
     58 H14B        -5.8420     0.2690     2.0290 hc         1 K60       0.036867
     59 H15         -8.9290    -0.4810    -0.9360 hc         1 K60       0.036867
     60 H15A        -9.3200     0.1100     0.6890 hc         1 K60       0.036867
     61 H15B        -8.5950     1.2110    -0.5040 hc         1 K60       0.036867
     62 H16         -4.4140     1.2360     0.2430 h1         1 K60       0.060200
     63 H16A        -3.5780    -0.0550     1.0870 h1         1 K60       0.060200
     64 H17         -1.9090    -0.2190    -0.5970 h1         1 K60       0.091700
     65 HO18        -3.8040     0.0970    -2.1540 ho         1 K60       0.440000
     66 H19         -1.6320     1.8100     0.7410 h1         1 K60       0.096700
     67 H32         -2.9620     3.3030    -1.5700 hc         1 K60       0.050200
     68 H32A        -3.5290     3.2230     0.0840 hc         1 K60       0.050200
     69 H33         -1.4060     5.0290    -2.2290 ha         1 K60       0.106000
     70 H34         -0.0330     7.0120    -1.6310 ha         1 K60       0.115500
     71 H35          0.3730     7.5770     0.7630 ha         1 K60       0.117000
     72 H36         -0.6020     6.1510     2.5610 ha         1 K60       0.115500
     73 H37         -1.9770     4.1660     1.9710 ha         1 K60       0.106000
     74 HN20        -0.5820     1.9220    -2.0580 hn         1 K60       0.320500
     75 H29          1.4240     2.7180    -2.3890 h1         1 K60       0.094700
     76 H25          1.4260    -0.0580    -1.7060 h1         1 K60       0.070700
     77 H25A         2.5220     0.6100    -2.9490 h1         1 K60       0.070700
     78 H44          3.5550    -1.5450    -2.7020 ha         1 K60       0.115000
     79 H45          4.6880    -3.7020    -2.3080 ha         1 K60       0.122000
     80 H40          5.7850    -4.1730    -0.1430 ha         1 K60       0.132000
     81 H42          4.6370    -0.2560     1.2800 ha         1 K60       0.158000
@<TRIPOS>BOND
     1     1     2 2   
     2     2     3 2   
     3     2     4 1   
     4     2    13 1   
     5     4     5 ar  
     6     4    12 ar  
     7     5     6 ar  
     8     5    48 1   
     9     6     7 ar  
    10     6    10 1   
    11     7     8 1   
    12     7    11 ar  
    13     8     9 1   
    14     9    10 1   
    15     9    49 1   
    16     9    50 1   
    17    11    12 ar  
    18    11    51 1   
    19    12    52 1   
    20    13    14 1   
    21    13    18 1   
    22    14    15 1   
    23    14    53 1   
    24    14    54 1   
    25    15    16 1   
    26    15    17 1   
    27    15    55 1   
    28    16    56 1   
    29    16    57 1   
    30    16    58 1   
    31    17    59 1   
    32    17    60 1   
    33    17    61 1   
    34    18    19 1   
    35    18    62 1   
    36    18    63 1   
    37    19    20 1   
    38    19    21 1   
    39    19    64 1   
    40    20    65 1   
    41    21    22 1   
    42    21    29 1   
    43    21    66 1   
    44    22    23 1   
    45    22    67 1   
    46    22    68 1   
    47    23    24 ar  
    48    23    28 ar  
    49    24    25 ar  
    50    24    69 1   
    51    25    26 ar  
    52    25    70 1   
    53    26    27 ar  
    54    26    71 1   
    55    27    28 ar  
    56    27    72 1   
    57    28    73 1   
    58    29    30 1   
    59    29    74 1   
    60    30    31 2   
    61    30    32 1   
    62    32    33 1   
    63    32    36 1   
    64    32    75 1   
    65    33    34 1   
    66    34    35 2   
    67    34    37 1   
    68    36    37 1   
    69    36    76 1   
    70    36    77 1   
    71    37    38 1   
    72    38    39 ar  
    73    38    42 ar  
    74    39    40 ar  
    75    39    78 1   
    76    40    41 ar  
    77    40    79 1   
    78    41    43 ar  
    79    41    80 1   
    80    42    43 ar  
    81    42    81 1   
    82    43    44 1   
    83    44    45 1   
    84    44    46 1   
    85    44    47 1   
@<TRIPOS>SUBSTRUCTURE
     1 K60         1 TEMP              0 ****  ****    0 ROOT
