@<TRIPOS>MOLECULE
K62
   83    87     1     0     0
SMALL
abcg2


@<TRIPOS>ATOM
      1 O45          8.6190     0.0220    -1.6190 o          1 K62      -0.510100
      2 C46          8.6880     1.1110    -1.0900 c          1 K62       0.579700
      3 C47          9.8360     2.0420    -1.3630 c3         1 K62      -0.195100
      4 C41          7.6230     1.5630    -0.1450 ca         1 K62      -0.152600
      5 C40          7.6600     2.8210     0.4530 ca         1 K62      -0.096000
      6 C45          6.6360     3.2010     1.3050 ca         1 K62      -0.102000
      7 C44          5.5900     2.3370     1.5810 ca         1 K62      -0.136000
      8 C42          6.5660     0.6950     0.1220 ca         1 K62      -0.067000
      9 C43          5.5520     1.0690     0.9970 ca         1 K62      -0.014000
     10 N24          4.4760     0.2200     1.2780 n          1 K62      -0.252400
     11 C26          4.5370    -1.1420     1.3230 c          1 K62       0.711100
     12 O27          5.4740    -1.8610     1.0980 o          1 K62      -0.497000
     13 O28          3.3480    -1.6240     1.7100 os         1 K62      -0.389100
     14 C25          3.2150     0.6950     1.8090 c5         1 K62       0.076000
     15 C29          2.3810    -0.5880     1.7320 c5         1 K62       0.068300
     16 C21          1.5860    -0.6540     0.4300 c          1 K62       0.589100
     17 O22          2.1510    -0.8790    -0.6240 o          1 K62      -0.558100
     18 N20          0.2810    -0.3930     0.5750 ns         1 K62      -0.494900
     19 C19         -0.6910    -0.4840    -0.4910 c3         1 K62       0.080700
     20 C32         -1.4400    -1.8280    -0.4020 c3         1 K62      -0.051100
     21 C38         -0.5000    -2.9990    -0.3860 ca         1 K62      -0.090300
     22 C37         -0.0480    -3.5370     0.8150 ca         1 K62      -0.102500
     23 C36          0.8610    -4.5870     0.8260 ca         1 K62      -0.099500
     24 C35          1.3220    -5.1210    -0.3690 ca         1 K62      -0.096000
     25 C34          0.8690    -4.5980    -1.5740 ca         1 K62      -0.099500
     26 C33         -0.0320    -3.5420    -1.5790 ca         1 K62      -0.102500
     27 C17         -1.6170     0.7410    -0.4120 c3         1 K62       0.141300
     28 O18         -2.2610     0.8250     0.8350 oh         1 K62      -0.658000
     29 C16         -2.5880     0.7830    -1.5950 c3         1 K62       0.194800
     30 N11         -3.5910     1.8250    -1.4590 n3         1 K62      -0.790500
     31 C12         -3.1710     3.2160    -1.3810 c3         1 K62       0.233800
     32 C13         -2.6620     3.7920    -2.7020 c3         1 K62      -0.080700
     33 C15         -3.7310     3.7540    -3.7870 c3         1 K62      -0.093100
     34 C14         -2.1800     5.2180    -2.4550 c3         1 K62      -0.093100
     35 S8          -5.1680     1.3830    -1.5290 sy         1 K62       1.197600
     36 O9          -5.9670     2.5870    -1.3620 o          1 K62      -0.536500
     37 O10         -5.3930     0.5430    -2.6980 o          1 K62      -0.536500
     38 C5          -5.3960     0.3490    -0.1090 ca         1 K62      -0.304500
     39 C6          -5.5700     0.9530     1.1270 ca         1 K62       0.000000
     40 C7          -5.6810     0.1780     2.2840 ca         1 K62      -0.126000
     41 C4          -5.3320    -1.0440    -0.2630 ca         1 K62      -0.019000
     42 C3          -5.4320    -1.7810     0.8890 ca         1 K62       0.026100
     43 O29         -5.4050    -3.1210     1.0300 os         1 K62      -0.336100
     44 C2          -5.6020    -1.1860     2.1330 ca         1 K62       0.106100
     45 O19         -5.6790    -2.1380     3.0770 os         1 K62      -0.336100
     46 C18         -5.4820    -3.3900     2.4250 c5         1 K62       0.373600
     47 H47         10.5550     1.5690    -2.0280 hc         1 K62       0.061367
     48 H47A         9.4840     2.9650    -1.8280 hc         1 K62       0.061367
     49 H47B        10.3430     2.3230    -0.4390 hc         1 K62       0.061367
     50 H40          8.4690     3.5110     0.2590 ha         1 K62       0.117000
     51 H45          6.6520     4.1780     1.7680 ha         1 K62       0.116000
     52 H44          4.8090     2.6590     2.2560 ha         1 K62       0.111000
     53 H42          6.5440    -0.2640    -0.3710 ha         1 K62       0.164000
     54 H25          3.3110     1.0410     2.8410 h1         1 K62       0.066700
     55 H25A         2.8050     1.5070     1.2090 h1         1 K62       0.066700
     56 H29          1.7490    -0.7170     2.6100 h1         1 K62       0.089700
     57 HN20        -0.0830    -0.2670     1.5080 hn         1 K62       0.319500
     58 H19         -0.1480    -0.4450    -1.4380 h1         1 K62       0.093700
     59 H32         -2.0580    -1.8450     0.5020 hc         1 K62       0.049200
     60 H32A        -2.1160    -1.9230    -1.2540 hc         1 K62       0.049200
     61 H37         -0.4080    -3.1340     1.7550 ha         1 K62       0.103500
     62 H36          1.2050    -4.9900     1.7700 ha         1 K62       0.115000
     63 H35          2.0270    -5.9420    -0.3630 ha         1 K62       0.117000
     64 H34          1.2170    -5.0120    -2.5110 ha         1 K62       0.115000
     65 H33         -0.3770    -3.1370    -2.5230 ha         1 K62       0.103500
     66 H17         -0.9680     1.6210    -0.4620 h1         1 K62       0.085700
     67 HO18        -2.9890     0.1970     0.8730 ho         1 K62       0.446000
     68 H16         -2.0140     0.9150    -2.5170 h1         1 K62       0.061200
     69 H16A        -3.0930    -0.1780    -1.7040 h1         1 K62       0.061200
     70 H12         -4.0030     3.8190    -1.0190 h1         1 K62       0.063200
     71 H12A        -2.3920     3.2930    -0.6170 h1         1 K62       0.063200
     72 H13         -1.8030     3.2000    -3.0380 hc         1 K62       0.047700
     73 H15         -4.6170     4.3150    -3.4810 hc         1 K62       0.039533
     74 H15A        -3.3590     4.1990    -4.7110 hc         1 K62       0.039533
     75 H15B        -4.0440     2.7370    -4.0220 hc         1 K62       0.039533
     76 H14         -1.3850     5.2530    -1.7080 hc         1 K62       0.039533
     77 H14A        -1.7900     5.6650    -3.3700 hc         1 K62       0.039533
     78 H14B        -2.9980     5.8500    -2.1010 hc         1 K62       0.039533
     79 H6          -5.6140     2.0290     1.2140 ha         1 K62       0.143000
     80 H7          -5.8220     0.6380     3.2520 ha         1 K62       0.143000
     81 H4          -5.2140    -1.5140    -1.2300 ha         1 K62       0.161000
     82 H18         -6.3260    -4.0490     2.6300 h2         1 K62       0.072700
     83 H18A        -4.5470    -3.8410     2.7690 h2         1 K62       0.072700
@<TRIPOS>BOND
     1     1     2 2   
     2     2     3 1   
     3     2     4 1   
     4     3    47 1   
     5     3    48 1   
     6     3    49 1   
     7     4     5 ar  
     8     4     8 ar  
     9     5     6 ar  
    10     5    50 1   
    11     6     7 ar  
    12     6    51 1   
    13     7     9 ar  
    14     7    52 1   
    15     8     9 ar  
    16     8    53 1   
    17     9    10 1   
    18    10    11 1   
    19    10    14 1   
    20    11    12 2   
    21    11    13 1   
    22    13    15 1   
    23    14    15 1   
    24    14    54 1   
    25    14    55 1   
    26    15    16 1   
    27    15    56 1   
    28    16    17 2   
    29    16    18 1   
    30    18    19 1   
    31    18    57 1   
    32    19    20 1   
    33    19    27 1   
    34    19    58 1   
    35    20    21 1   
    36    20    59 1   
    37    20    60 1   
    38    21    22 ar  
    39    21    26 ar  
    40    22    23 ar  
    41    22    61 1   
    42    23    24 ar  
    43    23    62 1   
    44    24    25 ar  
    45    24    63 1   
    46    25    26 ar  
    47    25    64 1   
    48    26    65 1   
    49    27    28 1   
    50    27    29 1   
    51    27    66 1   
    52    28    67 1   
    53    29    30 1   
    54    29    68 1   
    55    29    69 1   
    56    30    31 1   
    57    30    35 1   
    58    31    32 1   
    59    31    70 1   
    60    31    71 1   
    61    32    33 1   
    62    32    34 1   
    63    32    72 1   
    64    33    73 1   
    65    33    74 1   
    66    33    75 1   
    67    34    76 1   
    68    34    77 1   
    69    34    78 1   
    70    35    36 2   
    71    35    37 2   
    72    35    38 1   
    73    38    39 ar  
    74    38    41 ar  
    75    39    40 ar  
    76    39    79 1   
    77    40    44 ar  
    78    40    80 1   
    79    41    42 ar  
    80    41    81 1   
    81    42    43 1   
    82    42    44 ar  
    83    43    46 1   
    84    44    45 1   
    85    45    46 1   
    86    46    82 1   
    87    46    83 1   
@<TRIPOS>SUBSTRUCTURE
     1 K62         1 TEMP              0 ****  ****    0 ROOT
