@<TRIPOS>MOLECULE
K62
   83    87     1     0     0
SMALL
No Charge or Current Charge


@<TRIPOS>ATOM
      1 O45          8.1780     0.2910    -2.5090 o          1 K62      -0.510100
      2 C46          8.2710     1.4080    -2.0160 c          1 K62       0.579700
      3 C47          9.3230     2.3810    -2.5550 c3         1 K62      -0.195100
      4 C41          7.3600     1.8390    -0.8810 ca         1 K62      -0.152600
      5 C40          7.4470     3.1260    -0.3020 ca         1 K62      -0.096000
      6 C45          6.6070     3.4820     0.7620 ca         1 K62      -0.102000
      7 C44          5.6570     2.5730     1.2510 ca         1 K62      -0.136000
      8 C42          6.3970     0.9340    -0.3730 ca         1 K62      -0.067000
      9 C43          5.5000     1.3060     0.6530 ca         1 K62      -0.014000
     10 N24          4.6210     0.3420     1.2710 n          1 K62      -0.252400
     11 C26          4.8450    -1.0390     1.3680 c          1 K62       0.711100
     12 O27          5.8750    -1.6320     1.0820 o          1 K62      -0.497000
     13 O28          3.7910    -1.6050     2.0240 os         1 K62      -0.389100
     14 C25          3.3640     0.7360     1.9240 c5         1 K62       0.076000
     15 C29          2.6890    -0.6560     2.0740 c5         1 K62       0.068300
     16 C21          1.7340    -0.8630     0.8580 c          1 K62       0.589100
     17 O22          1.9820    -1.4550    -0.1850 o          1 K62      -0.558100
     18 N20          0.4950    -0.3250     1.1500 ns         1 K62      -0.494900
     19 C19         -0.6850    -0.4020     0.2780 c3         1 K62       0.080700
     20 C32         -1.7060    -1.4240     0.8550 c3         1 K62      -0.051100
     21 C38         -1.1730    -2.8500     0.8940 ca         1 K62      -0.090300
     22 C37         -0.5700    -3.3570     2.0610 ca         1 K62      -0.102500
     23 C36         -0.0840    -4.6760     2.0920 ca         1 K62      -0.099500
     24 C35         -0.2030    -5.4960     0.9570 ca         1 K62      -0.096000
     25 C34         -0.8080    -4.9960    -0.2090 ca         1 K62      -0.099500
     26 C33         -1.2910    -3.6770    -0.2400 ca         1 K62      -0.102500
     27 C17         -1.2680     1.0230     0.0260 c3         1 K62       0.141300
     28 O18         -1.9050     1.5270     1.2110 oh         1 K62      -0.658000
     29 C16         -2.2970     1.0890    -1.1400 c3         1 K62       0.194800
     30 N11         -3.3730     2.1050    -0.9250 n3         1 K62      -0.790500
     31 C12         -2.9970     3.5450    -1.0360 c3         1 K62       0.233800
     32 C13         -2.1520     3.9900    -2.2680 c3         1 K62      -0.080700
     33 C15         -2.8070     3.6840    -3.6350 c3         1 K62      -0.093100
     34 C14         -1.8000     5.4930    -2.1640 c3         1 K62      -0.093100
     35 S8          -4.9550     1.6650    -1.3980 sy         1 K62       1.197600
     36 O9          -5.8490     2.6120    -0.7240 o          1 K62      -0.536500
     37 O10         -4.9610     1.4770    -2.8500 o          1 K62      -0.536500
     38 C5          -5.1480     0.0830    -0.5580 ca         1 K62      -0.304500
     39 C6          -5.2870     0.0530     0.8550 ca         1 K62       0.000000
     40 C7          -5.3790    -1.1800     1.5340 ca         1 K62      -0.126000
     41 C4          -5.1110    -1.1270    -1.2950 ca         1 K62      -0.019000
     42 C3          -5.1880    -2.3310    -0.5830 ca         1 K62       0.026100
     43 O29         -5.1450    -3.5790    -1.1180 os         1 K62      -0.336100
     44 C2          -5.3150    -2.3560     0.7780 ca         1 K62       0.106100
     45 O19         -5.3740    -3.6200     1.2680 os         1 K62      -0.336100
     46 C18         -5.0680    -4.4310     0.0800 c5         1 K62       0.373600
     47 H47          9.9180     1.9490    -3.3690 hc         1 K62       0.061367
     48 H47A         8.8280     3.3060    -2.8690 hc         1 K62       0.061367
     49 H47B         9.9600     2.7150    -1.7280 hc         1 K62       0.061367
     50 H40          8.1710     3.8570    -0.6540 ha         1 K62       0.117000
     51 H45          6.7000     4.4650     1.2200 ha         1 K62       0.116000
     52 H44          5.0420     2.8650     2.0990 ha         1 K62       0.111000
     53 H42          6.3250    -0.0590    -0.8120 ha         1 K62       0.164000
     54 H25          3.5560     1.1930     2.9030 h1         1 K62       0.066700
     55 H25A         2.7800     1.4380     1.3130 h1         1 K62       0.066700
     56 H29          2.1270    -0.7740     3.0090 h1         1 K62       0.089700
     57 HN20         0.3850     0.1410     2.0440 hn         1 K62       0.319500
     58 H19         -0.3630    -0.7840    -0.7010 h1         1 K62       0.093700
     59 H32         -2.0070    -1.1090     1.8610 hc         1 K62       0.049200
     60 H32A        -2.6210    -1.4090     0.2570 hc         1 K62       0.049200
     61 H37         -0.4750    -2.7290     2.9440 ha         1 K62       0.103500
     62 H36          0.3830    -5.0620     2.9950 ha         1 K62       0.115000
     63 H35          0.1720    -6.5170     0.9810 ha         1 K62       0.117000
     64 H34         -0.9010    -5.6300    -1.0880 ha         1 K62       0.115000
     65 H33         -1.7590    -3.2970    -1.1460 ha         1 K62       0.103500
     66 H17         -0.4370     1.6880    -0.2490 h1         1 K62       0.085700
     67 HO18        -2.7310     1.9300     0.8460 ho         1 K62       0.446000
     68 H16         -1.7620     1.2760    -2.0800 h1         1 K62       0.061200
     69 H16A        -2.7290     0.0920    -1.2680 h1         1 K62       0.061200
     70 H12         -3.8930     4.1780    -0.9910 h1         1 K62       0.063200
     71 H12A        -2.4120     3.8140    -0.1470 h1         1 K62       0.063200
     72 H13         -1.1980     3.4510    -2.2340 hc         1 K62       0.047700
     73 H15         -3.8240     4.0910    -3.6840 hc         1 K62       0.039533
     74 H15A        -2.2230     4.1240    -4.4530 hc         1 K62       0.039533
     75 H15B        -2.8490     2.6040    -3.8150 hc         1 K62       0.039533
     76 H14         -1.2800     5.7060    -1.2210 hc         1 K62       0.039533
     77 H14A        -1.1400     5.7970    -2.9860 hc         1 K62       0.039533
     78 H14B        -2.7050     6.1110    -2.2040 hc         1 K62       0.039533
     79 H6          -5.3110     0.9810     1.4260 ha         1 K62       0.143000
     80 H7          -5.4810    -1.2190     2.6150 ha         1 K62       0.143000
     81 H4          -4.9990    -1.1380    -2.3780 ha         1 K62       0.161000
     82 H18         -5.7790    -5.2620    -0.0030 h2         1 K62       0.072700
     83 H18A        -4.0460    -4.8180     0.1710 h2         1 K62       0.072700
@<TRIPOS>BOND
     1     1     2 2   
     2     2     3 1   
     3     2     4 1   
     4     3    47 1   
     5     3    48 1   
     6     3    49 1   
     7     4     5 ar  
     8     4     8 ar  
     9     5     6 ar  
    10     5    50 1   
    11     6     7 ar  
    12     6    51 1   
    13     7     9 ar  
    14     7    52 1   
    15     8     9 ar  
    16     8    53 1   
    17     9    10 1   
    18    10    11 1   
    19    10    14 1   
    20    11    12 2   
    21    11    13 1   
    22    13    15 1   
    23    14    15 1   
    24    14    54 1   
    25    14    55 1   
    26    15    16 1   
    27    15    56 1   
    28    16    17 2   
    29    16    18 1   
    30    18    19 1   
    31    18    57 1   
    32    19    20 1   
    33    19    27 1   
    34    19    58 1   
    35    20    21 1   
    36    20    59 1   
    37    20    60 1   
    38    21    22 ar  
    39    21    26 ar  
    40    22    23 ar  
    41    22    61 1   
    42    23    24 ar  
    43    23    62 1   
    44    24    25 ar  
    45    24    63 1   
    46    25    26 ar  
    47    25    64 1   
    48    26    65 1   
    49    27    28 1   
    50    27    29 1   
    51    27    66 1   
    52    28    67 1   
    53    29    30 1   
    54    29    68 1   
    55    29    69 1   
    56    30    31 1   
    57    30    35 1   
    58    31    32 1   
    59    31    70 1   
    60    31    71 1   
    61    32    33 1   
    62    32    34 1   
    63    32    72 1   
    64    33    73 1   
    65    33    74 1   
    66    33    75 1   
    67    34    76 1   
    68    34    77 1   
    69    34    78 1   
    70    35    36 2   
    71    35    37 2   
    72    35    38 1   
    73    38    39 ar  
    74    38    41 ar  
    75    39    40 ar  
    76    39    79 1   
    77    40    44 ar  
    78    40    80 1   
    79    41    42 ar  
    80    41    81 1   
    81    42    43 1   
    82    42    44 ar  
    83    43    46 1   
    84    44    45 1   
    85    45    46 1   
    86    46    82 1   
    87    46    83 1   
@<TRIPOS>SUBSTRUCTURE
     1 K62         1 TEMP              0 ****  ****    0 ROOT
