@<TRIPOS>MOLECULE
K63
   55    58     1     0     0
SMALL
No Charge or Current Charge


@<TRIPOS>ATOM
      1 N3          10.6240    35.3570    -9.3860 nb         1 K63      -0.745000
      2 C4          10.3520    36.2410   -10.3660 cp         1 K63       0.502500
      3 C5           8.9190    36.3410    -7.9940 ca         1 K63      -0.127000
      4 C7           9.9340    35.3860    -8.2320 ca         1 K63       0.309000
      5 C8           9.1890    38.2420   -11.2120 cg         1 K63       0.368000
      6 C10          5.4010    37.0830    -9.0530 c          1 K63       0.708000
      7 C13         13.6580    35.5910   -15.1770 cp         1 K63      -0.053000
      8 C15         12.8200    35.7680   -13.9470 cp         1 K63      -0.029000
      9 C17         14.8260    36.3660   -15.4280 ca         1 K63       0.154100
     10 C20         10.6130    36.0080   -12.8940 ca         1 K63      -0.080000
     11 C21         13.3990    35.8200   -12.6570 ca         1 K63      -0.102000
     12 C22         11.4110    35.8530   -14.0410 ca         1 K63      -0.102000
     13 C28         13.2840    34.6220   -16.1420 ca         1 K63      -0.070000
     14 C1           9.3770    37.2450   -10.2020 ca         1 K63      -0.240000
     15 C2           8.6450    37.2890    -9.0050 ca         1 K63       0.446000
     16 N6           7.6710    38.2780    -8.8020 nu         1 K63      -0.882200
     17 N9           9.0480    39.0470   -12.0460 n1         1 K63      -0.512000
     18 C11          6.3360    38.2810    -9.4830 c3         1 K63       0.053500
     19 C12         11.1940    36.0860   -11.6020 cp         1 K63      -0.135500
     20 C14          8.2100    36.3140    -6.7640 ca         1 K63      -0.097000
     21 C18         10.2330    34.4360    -7.2360 ca         1 K63      -0.091000
     22 C19         12.6040    35.9730   -11.5080 ca         1 K63      -0.080000
     23 C23          8.5230    35.3570    -5.7880 ca         1 K63       0.123000
     24 C25          9.5350    34.4180    -6.0170 ca         1 K63      -0.128000
     25 F26          7.8440    35.3390    -4.6210 f          1 K63      -0.192000
     26 O27         15.1580    37.3370   -14.5010 os         1 K63      -0.345100
     27 C29          5.6620    39.6530    -9.2660 c3         1 K63      -0.076100
     28 C30         15.5880    36.1610   -16.6000 ca         1 K63      -0.205000
     29 C31         16.3130    38.1790   -14.6450 c3         1 K63       0.164600
     30 C32         16.3590    39.1120   -13.4250 c3         1 K63      -0.094100
     31 C33         14.0450    34.4210   -17.3050 ca         1 K63      -0.152000
     32 C34         15.1970    35.1880   -17.5330 ca         1 K63      -0.078000
     33 H1           9.5320    36.0580   -13.0080 ha         1 K63       0.125500
     34 H2          14.4770    35.7310   -12.5450 ha         1 K63       0.111500
     35 H3          10.9320    35.8060   -15.0160 ha         1 K63       0.111500
     36 H4          12.3990    34.0120   -15.9780 ha         1 K63       0.119000
     37 H5           7.6440    38.6020    -7.8330 hn         1 K63       0.522000
     38 H6           6.4830    38.1720   -10.5650 h1         1 K63       0.065700
     39 H7           7.4090    37.0160    -6.5490 ha         1 K63       0.148000
     40 H9          11.0150    33.7030    -7.4160 ha         1 K63       0.125000
     41 H10         13.0850    36.0100   -10.5330 ha         1 K63       0.125500
     42 H11          9.7750    33.6780    -5.2580 ha         1 K63       0.121000
     43 H12          4.6980    39.6910    -9.7880 hc         1 K63       0.034367
     44 H13          5.4820    39.8430    -8.2010 hc         1 K63       0.034367
     45 H14          6.2920    40.4600    -9.6590 hc         1 K63       0.034367
     46 H15         16.4790    36.7470   -16.8050 ha         1 K63       0.110000
     47 H16         17.2310    37.5780   -14.6800 h1         1 K63       0.029700
     48 H17         16.2470    38.7780   -15.5620 h1         1 K63       0.029700
     49 H18         17.2280    39.7760   -13.4890 hc         1 K63       0.048700
     50 H19         15.4550    39.7310   -13.3790 hc         1 K63       0.048700
     51 H20         16.4350    38.5320   -12.4980 hc         1 K63       0.048700
     52 H21         13.7420    33.6690   -18.0290 ha         1 K63       0.111000
     53 H22         15.7850    35.0310   -18.4360 ha         1 K63       0.104000
     54 O16          4.8760    37.1100    -7.9460 o          1 K63      -0.710000
     55 O24          5.2610    36.1520    -9.8360 o          1 K63      -0.710000
@<TRIPOS>BOND
     1     1     2 ar  
     2     1     4 ar  
     3     2    14 ar  
     4     2    19 1   
     5     3     4 ar  
     6     3    15 ar  
     7     3    20 ar  
     8     4    21 ar  
     9     5    14 1   
    10     5    17 3   
    11     6    18 1   
    12     6    54 1   
    13     6    55 1   
    14     7     8 1   
    15     7     9 ar  
    16     7    13 ar  
    17     8    11 ar  
    18     8    12 ar  
    19     9    26 1   
    20     9    28 ar  
    21    10    12 ar  
    22    10    19 ar  
    23    10    33 1   
    24    11    22 ar  
    25    11    34 1   
    26    12    35 1   
    27    13    31 ar  
    28    13    36 1   
    29    14    15 ar  
    30    15    16 1   
    31    16    18 1   
    32    16    37 1   
    33    18    27 1   
    34    18    38 1   
    35    19    22 ar  
    36    20    23 ar  
    37    20    39 1   
    38    21    24 ar  
    39    21    40 1   
    40    22    41 1   
    41    23    24 ar  
    42    23    25 1   
    43    24    42 1   
    44    26    29 1   
    45    27    43 1   
    46    27    44 1   
    47    27    45 1   
    48    28    32 ar  
    49    28    46 1   
    50    29    30 1   
    51    29    47 1   
    52    29    48 1   
    53    30    49 1   
    54    30    50 1   
    55    30    51 1   
    56    31    32 ar  
    57    31    52 1   
    58    32    53 1   
@<TRIPOS>SUBSTRUCTURE
     1 K63         1 TEMP              0 ****  ****    0 ROOT
