@<TRIPOS>MOLECULE
K63
   55    58     1     0     0
SMALL
abcg2


@<TRIPOS>ATOM
      1 N3          10.7600    35.2150    -9.2660 nb         1 K63      -0.745000
      2 C4          10.3860    36.0160   -10.2330 cp         1 K63       0.502500
      3 C5           8.9110    36.0380    -7.8820 ca         1 K63      -0.127000
      4 C7          10.0640    35.2410    -8.0890 ca         1 K63       0.309000
      5 C8           9.1210    37.9010   -11.1250 cg         1 K63       0.368000
      6 C10          5.0140    37.8410    -9.4680 c          1 K63       0.708000
      7 C13         13.5490    35.6550   -15.0620 cp         1 K63      -0.053000
      8 C15         12.7460    35.7890   -13.8250 cp         1 K63      -0.029000
      9 C17         14.6340    36.5110   -15.3510 ca         1 K63       0.154100
     10 C20         10.5790    35.8330   -12.7340 ca         1 K63      -0.080000
     11 C21         13.3470    35.9130   -12.5660 ca         1 K63      -0.102000
     12 C22         11.3500    35.7430   -13.8840 ca         1 K63      -0.102000
     13 C28         13.2350    34.6570   -15.9850 ca         1 K63      -0.070000
     14 C1           9.2750    36.9150   -10.1200 ca         1 K63      -0.240000
     15 C2           8.4600    36.8920    -8.9650 ca         1 K63       0.446000
     16 N6           7.3450    37.6060    -8.7970 nu         1 K63      -0.882200
     17 N9           9.0630    38.7240   -11.9360 n1         1 K63      -0.512000
     18 C11          6.4860    38.2240    -9.8020 c3         1 K63       0.053500
     19 C12         11.1840    35.9570   -11.4830 cp         1 K63      -0.135500
     20 C14          8.2590    35.9890    -6.6330 ca         1 K63      -0.097000
     21 C18         10.5230    34.4100    -7.0440 ca         1 K63      -0.091000
     22 C19         12.5790    35.9830   -11.4150 ca         1 K63      -0.080000
     23 C23          8.7560    35.1760    -5.6510 ca         1 K63       0.123000
     24 C25          9.8840    34.3730    -5.8290 ca         1 K63      -0.128000
     25 F26          8.1340    35.1440    -4.4470 f          1 K63      -0.192000
     26 O27         14.8830    37.5030   -14.4580 os         1 K63      -0.345100
     27 C29          6.6220    39.7490    -9.8110 c3         1 K63      -0.076100
     28 C30         15.3700    36.3360   -16.5240 ca         1 K63      -0.205000
     29 C31         16.0080    38.3670   -14.6680 c3         1 K63       0.164600
     30 C32         16.0770    39.3180   -13.4960 c3         1 K63      -0.094100
     31 C33         13.9650    34.4800   -17.1550 ca         1 K63      -0.152000
     32 C34         15.0370    35.3230   -17.4180 ca         1 K63      -0.078000
     33 H1           9.5000    35.7910   -12.8120 ha         1 K63       0.125500
     34 H2          14.4250    35.9440   -12.4900 ha         1 K63       0.111500
     35 H3          10.8600    35.6450   -14.8450 ha         1 K63       0.111500
     36 H4          12.4090    33.9930   -15.7650 ha         1 K63       0.119000
     37 H5           6.7900    37.4200    -7.9690 hn         1 K63       0.522000
     38 H6           6.7180    37.8160   -10.7820 h1         1 K63       0.065700
     39 H7           7.3840    36.5820    -6.4070 ha         1 K63       0.148000
     40 H9          11.4010    33.8040    -7.2260 ha         1 K63       0.125000
     41 H10         13.0600    36.0660   -10.4500 ha         1 K63       0.125500
     42 H11         10.2320    33.7450    -5.0200 ha         1 K63       0.121000
     43 H12          5.9770    40.1750   -10.5790 hc         1 K63       0.034367
     44 H13          6.3260    40.1550    -8.8410 hc         1 K63       0.034367
     45 H14          7.6500    40.0470   -10.0130 hc         1 K63       0.034367
     46 H15         16.1980    36.9910   -16.7490 ha         1 K63       0.110000
     47 H16         16.9180    37.7640   -14.7390 h1         1 K63       0.029700
     48 H17         15.8800    38.9090   -15.6090 h1         1 K63       0.029700
     49 H18         16.9220    39.9960   -13.6250 hc         1 K63       0.048700
     50 H19         15.1650    39.9130   -13.4250 hc         1 K63       0.048700
     51 H20         16.2120    38.7720   -12.5610 hc         1 K63       0.048700
     52 H21         13.7030    33.6890   -17.8460 ha         1 K63       0.111000
     53 H22         15.6220    35.2000   -18.3200 ha         1 K63       0.104000
     54 O16          4.7890    37.4270    -8.3030 o          1 K63      -0.710000
     55 O24          4.1860    38.0120   -10.3890 o          1 K63      -0.710000
@<TRIPOS>BOND
     1     1     2 ar  
     2     1     4 ar  
     3     2    14 ar  
     4     2    19 1   
     5     3     4 ar  
     6     3    15 ar  
     7     3    20 ar  
     8     4    21 ar  
     9     5    14 1   
    10     5    17 3   
    11     6    18 1   
    12     6    54 1   
    13     6    55 1   
    14     7     8 1   
    15     7     9 ar  
    16     7    13 ar  
    17     8    11 ar  
    18     8    12 ar  
    19     9    26 1   
    20     9    28 ar  
    21    10    12 ar  
    22    10    19 ar  
    23    10    33 1   
    24    11    22 ar  
    25    11    34 1   
    26    12    35 1   
    27    13    31 ar  
    28    13    36 1   
    29    14    15 ar  
    30    15    16 1   
    31    16    18 1   
    32    16    37 1   
    33    18    27 1   
    34    18    38 1   
    35    19    22 ar  
    36    20    23 ar  
    37    20    39 1   
    38    21    24 ar  
    39    21    40 1   
    40    22    41 1   
    41    23    24 ar  
    42    23    25 1   
    43    24    42 1   
    44    26    29 1   
    45    27    43 1   
    46    27    44 1   
    47    27    45 1   
    48    28    32 ar  
    49    28    46 1   
    50    29    30 1   
    51    29    47 1   
    52    29    48 1   
    53    30    49 1   
    54    30    50 1   
    55    30    51 1   
    56    31    32 ar  
    57    31    52 1   
    58    32    53 1   
@<TRIPOS>SUBSTRUCTURE
     1 K63         1 TEMP              0 ****  ****    0 ROOT
