@<TRIPOS>MOLECULE
K64
   78    81     1     0     0
SMALL
bcc


@<TRIPOS>ATOM
      1 C1          -7.6570    -1.3280     2.1570 ca         1 K64      -0.147000
      2 C2          -7.3330    -0.1220     1.5610 ca         1 K64      -0.101000
      3 C3          -6.1360     0.0140     0.8770 ca         1 K64      -0.146000
      4 C4          -5.2620    -1.0670     0.7880 ca         1 K64      -0.105600
      5 C5          -5.5600    -2.2940     1.3880 ca         1 K64      -0.116300
      6 C6          -6.7780    -2.4040     2.0720 ca         1 K64       0.135100
      7 C9          -4.6250    -3.4720     1.3750 c3         1 K64      -0.056800
      8 C13         -4.0280    -0.8960    -0.0440 c          1 K64       0.686700
      9 N14         -3.2530     0.1410     0.3220 ns         1 K64      -0.559900
     10 C15         -2.0940     0.5660    -0.4110 c3         1 K64       0.022700
     11 C16         -2.2260     2.0500    -0.8130 c3         1 K64      -0.039100
     12 C17         -0.8340     0.3790     0.4200 c          1 K64       0.559100
     13 C19          0.5130     0.2550    -0.3060 c3         1 K64       0.277300
     14 N20          1.4940     1.0730     0.3510 n3         1 K64      -0.708600
     15 C21          2.8740     0.8890    -0.0510 c5         1 K64       0.095500
     16 C22          3.7100     1.8140     0.8650 c5         1 K64       0.079100
     17 S23          2.6790     3.3400     0.9080 ss         1 K64      -0.351200
     18 C24          1.1910     2.4910     0.3000 c5         1 K64       0.259900
     19 C27         -3.4700     2.2800    -1.6250 ca         1 K64      -0.080300
     20 C30         -4.5620     2.9510    -1.0840 ca         1 K64      -0.122000
     21 C31         -5.7220     3.1360    -1.8260 ca         1 K64      -0.126000
     22 C32         -5.8020     2.6500    -3.1230 ca         1 K64      -0.125000
     23 C33         -4.7150     1.9820    -3.6740 ca         1 K64      -0.126000
     24 C34         -3.5590     1.8000    -2.9290 ca         1 K64      -0.122000
     25 O41         -0.8810     0.3030     1.6200 o          1 K64      -0.473100
     26 O44          0.3480     0.5230    -1.6750 oh         1 K64      -0.621800
     27 C45          3.8640     1.2820     2.2850 c3         1 K64      -0.082100
     28 C49          5.0650     2.1550     0.2610 c3         1 K64      -0.082100
     29 C53          3.3280    -0.5640     0.0690 c          1 K64       0.666100
     30 N55          4.2760    -0.9020    -0.8200 ns         1 K64      -0.575900
     31 C56          4.8760    -2.2200    -0.9090 c3         1 K64       0.146300
     32 O57          2.8910    -1.3270     0.9150 o          1 K64      -0.575100
     33 O60         -7.1580    -3.5450     2.6830 oh         1 K64      -0.501100
     34 O62         -3.7810    -1.6280    -0.9910 o          1 K64      -0.599100
     35 C63          6.3430    -2.1210    -1.2330 ca         1 K64      -0.118300
     36 C66          6.7590    -2.3100    -2.5460 ca         1 K64      -0.117000
     37 C67          8.0980    -2.2040    -2.9000 ca         1 K64      -0.134000
     38 C68          9.0350    -1.9080    -1.9230 ca         1 K64      -0.114000
     39 C69          8.6270    -1.7210    -0.6080 ca         1 K64      -0.133000
     40 C70          7.2880    -1.8220    -0.2410 ca         1 K64      -0.049300
     41 C75          6.8850    -1.6270     1.1920 c3         1 K64      -0.053800
     42 H33         -8.5900    -1.4460     2.6940 ha         1 K64       0.148000
     43 H32         -8.0200     0.7110     1.6260 ha         1 K64       0.136000
     44 H31         -5.8900     0.9500     0.3910 ha         1 K64       0.142000
     45 H35         -5.0250    -4.3010     0.7850 hc         1 K64       0.050033
     46 H36         -3.6530    -3.2320     0.9580 hc         1 K64       0.050033
     47 H37         -4.4450    -3.8450     2.3860 hc         1 K64       0.050033
     48 H30         -3.4960     0.6430     1.1630 hn         1 K64       0.328500
     49 H22         -2.0310    -0.0390    -1.3150 h1         1 K64       0.111700
     50 H23         -2.2490     2.6680     0.0890 hc         1 K64       0.060200
     51 H24         -1.3460     2.3520    -1.3820 hc         1 K64       0.060200
     52 H20          0.7920    -0.7950    -0.1590 h2         1 K64       0.091700
     53 H11          3.0410     1.2270    -1.0880 h1         1 K64       0.043700
     54 H12          0.9740     2.8530    -0.7110 h2         1 K64       0.072200
     55 H13          0.3450     2.7330     0.9450 h2         1 K64       0.072200
     56 H25         -4.5050     3.3370    -0.0730 ha         1 K64       0.129500
     57 H26         -6.5630     3.6580    -1.3870 ha         1 K64       0.131000
     58 H27         -6.7040     2.7910    -3.7040 ha         1 K64       0.131000
     59 H28         -4.7680     1.6050    -4.6870 ha         1 K64       0.131000
     60 H29         -2.7160     1.2790    -3.3690 ha         1 K64       0.129500
     61 H21          0.8640    -0.1030    -2.1910 ho         1 K64       0.415000
     62 H14          2.9050     0.9830     2.7040 hc         1 K64       0.051200
     63 H15          4.5380     0.4230     2.3210 hc         1 K64       0.051200
     64 H16          4.2910     2.0550     2.9220 hc         1 K64       0.051200
     65 H17          5.5650     2.9230     0.8510 hc         1 K64       0.051200
     66 H18          5.7170     1.2810     0.2550 hc         1 K64       0.051200
     67 H19          4.9680     2.5210    -0.7610 hc         1 K64       0.051200
     68 H10          4.5110    -0.2450    -1.5480 hn         1 K64       0.315500
     69 H8           4.3670    -2.8070    -1.6790 h1         1 K64       0.061700
     70 H9           4.7130    -2.7320     0.0380 h1         1 K64       0.061700
     71 H34         -6.5340    -4.2600     2.5180 ho         1 K64       0.431000
     72 H7           6.0210    -2.5450    -3.3050 ha         1 K64       0.128000
     73 H6           8.4020    -2.3550    -3.9270 ha         1 K64       0.134000
     74 H5          10.0840    -1.8250    -2.1770 ha         1 K64       0.133000
     75 H4           9.3670    -1.4980     0.1520 ha         1 K64       0.132000
     76 H1           6.1820    -0.8010     1.3060 hc         1 K64       0.047700
     77 H2           6.3960    -2.5150     1.5980 hc         1 K64       0.047700
     78 H3           7.7490    -1.4110     1.8170 hc         1 K64       0.047700
@<TRIPOS>BOND
     1     1     2 ar  
     2     1     6 ar  
     3     1    42 1   
     4     2     3 ar  
     5     2    43 1   
     6     3     4 ar  
     7     3    44 1   
     8     4     5 ar  
     9     4     8 1   
    10     5     6 ar  
    11     5     7 1   
    12     6    33 1   
    13     7    45 1   
    14     7    46 1   
    15     7    47 1   
    16     8     9 1   
    17     8    34 2   
    18     9    10 1   
    19     9    48 1   
    20    10    11 1   
    21    10    12 1   
    22    10    49 1   
    23    11    19 1   
    24    11    50 1   
    25    11    51 1   
    26    12    13 1   
    27    12    25 2   
    28    13    14 1   
    29    13    26 1   
    30    13    52 1   
    31    14    15 1   
    32    14    18 1   
    33    15    16 1   
    34    15    29 1   
    35    15    53 1   
    36    16    17 1   
    37    16    27 1   
    38    16    28 1   
    39    17    18 1   
    40    18    54 1   
    41    18    55 1   
    42    19    20 ar  
    43    19    24 ar  
    44    20    21 ar  
    45    20    56 1   
    46    21    22 ar  
    47    21    57 1   
    48    22    23 ar  
    49    22    58 1   
    50    23    24 ar  
    51    23    59 1   
    52    24    60 1   
    53    26    61 1   
    54    27    62 1   
    55    27    63 1   
    56    27    64 1   
    57    28    65 1   
    58    28    66 1   
    59    28    67 1   
    60    29    30 1   
    61    29    32 2   
    62    30    31 1   
    63    30    68 1   
    64    31    35 1   
    65    31    69 1   
    66    31    70 1   
    67    33    71 1   
    68    35    36 ar  
    69    35    40 ar  
    70    36    37 ar  
    71    36    72 1   
    72    37    38 ar  
    73    37    73 1   
    74    38    39 ar  
    75    38    74 1   
    76    39    40 ar  
    77    39    75 1   
    78    40    41 1   
    79    41    76 1   
    80    41    77 1   
    81    41    78 1   
@<TRIPOS>SUBSTRUCTURE
     1 K64         1 TEMP              0 ****  ****    0 ROOT
