@<TRIPOS>MOLECULE
K64
   78    81     1     0     0
SMALL
No Charge or Current Charge


@<TRIPOS>ATOM
      1 C1          -8.0470    -1.4560     1.7350 ca         1 K64      -0.129000
      2 C2          -7.6040    -0.2790     1.1230 ca         1 K64      -0.083000
      3 C3          -6.2800    -0.1810     0.6760 ca         1 K64      -0.128000
      4 C4          -5.3680    -1.2560     0.8390 ca         1 K64      -0.105600
      5 C5          -5.8200    -2.4500     1.4820 ca         1 K64      -0.116300
      6 C6          -7.1710    -2.5340     1.9110 ca         1 K64       0.135100
      7 C9          -4.8550    -3.6170     1.7410 c3         1 K64      -0.056800
      8 C13         -3.9530    -1.0990     0.2980 c          1 K64       0.619700
      9 N14         -3.4660     0.1890     0.2790 ns         1 K64      -0.492900
     10 C15         -2.1860     0.5990    -0.3460 c3         1 K64       0.022700
     11 C16         -2.2380     2.0850    -0.7820 c3         1 K64      -0.039100
     12 C17         -0.9730     0.2930     0.5870 c          1 K64       0.559100
     13 C19          0.4490     0.1110    -0.0850 c3         1 K64       0.300500
     14 N20          1.5040     1.0560     0.3650 n3         1 K64      -0.708600
     15 C21          2.9310     0.7670    -0.0240 c5         1 K64       0.095500
     16 C22          3.7590     1.8150     0.8110 c5         1 K64       0.127000
     17 S23          2.7310     3.3660     0.7720 ss         1 K64      -0.447000
     18 C24          1.2820     2.4830     0.0350 c5         1 K64       0.307800
     19 C27         -3.4990     2.4200    -1.5720 ca         1 K64      -0.080300
     20 C30         -4.4920     3.2530    -1.0160 ca         1 K64      -0.104000
     21 C31         -5.6620     3.5400    -1.7390 ca         1 K64      -0.108000
     22 C32         -5.8480     2.9990    -3.0230 ca         1 K64      -0.107000
     23 C33         -4.8610     2.1710    -3.5830 ca         1 K64      -0.108000
     24 C34         -3.6900     1.8820    -2.8600 ca         1 K64      -0.104000
     25 O41         -1.1210     0.1750     1.8040 o          1 K64      -0.473100
     26 O44          0.4220     0.2000    -1.5170 oh         1 K64      -0.684000
     27 C45          3.9600     1.4490     2.3070 c3         1 K64      -0.082100
     28 C49          5.1370     2.1360     0.1800 c3         1 K64      -0.082100
     29 C53          3.4610    -0.6890     0.2690 c          1 K64       0.599100
     30 N55          4.3420    -1.0650    -0.7240 ns         1 K64      -0.508900
     31 C56          5.0490    -2.3430    -0.7670 c3         1 K64       0.146300
     32 O57          3.1270    -1.4410     1.1760 o          1 K64      -0.575100
     33 O60         -7.6620    -3.6630     2.5040 oh         1 K64      -0.540100
     34 O62         -3.2910    -2.0220    -0.1590 o          1 K64      -0.599100
     35 C63          6.4860    -2.1440    -1.2370 ca         1 K64      -0.118300
     36 C66          6.7810    -2.3020    -2.6060 ca         1 K64      -0.099000
     37 C67          8.0890    -2.1180    -3.0810 ca         1 K64      -0.116000
     38 C68          9.1150    -1.7720    -2.1900 ca         1 K64      -0.096000
     39 C69          8.8320    -1.6090    -0.8240 ca         1 K64      -0.115000
     40 C70          7.5220    -1.7900    -0.3360 ca         1 K64      -0.049300
     41 C75          7.2540    -1.6030     1.1550 c3         1 K64      -0.053800
     42 H33         -9.0780    -1.5350     2.0720 ha         1 K64       0.130000
     43 H32         -8.2900     0.5540     0.9820 ha         1 K64       0.118000
     44 H31         -5.9800     0.7340     0.1700 ha         1 K64       0.124000
     45 H35         -4.7180    -4.2220     0.8370 hc         1 K64       0.050033
     46 H36         -3.8700    -3.2570     2.0590 hc         1 K64       0.050033
     47 H37         -5.1910    -4.2870     2.5400 hc         1 K64       0.050033
     48 H30         -4.0610     0.9020     0.6830 hn         1 K64       0.328500
     49 H22         -2.0520    -0.0100    -1.2490 h1         1 K64       0.111700
     50 H23         -2.1720     2.7190     0.1120 hc         1 K64       0.060200
     51 H24         -1.3540     2.3190    -1.3870 hc         1 K64       0.060200
     52 H20          0.7580    -0.9070     0.1850 h2         1 K64       0.091700
     53 H11          3.0640     0.9630    -1.0980 h1         1 K64       0.043700
     54 H12          1.2860     2.6430    -1.0510 h2         1 K64       0.072200
     55 H13          0.3550     2.8670     0.4800 h2         1 K64       0.072200
     56 H25         -4.3600     3.6750    -0.0230 ha         1 K64       0.111500
     57 H26         -6.4260     4.1810    -1.3050 ha         1 K64       0.113000
     58 H27         -6.7540     3.2210    -3.5820 ha         1 K64       0.113000
     59 H28         -5.0030     1.7510    -4.5770 ha         1 K64       0.113000
     60 H29         -2.9330     1.2380    -3.3010 ha         1 K64       0.111500
     61 H21          1.3280    -0.0040    -1.8230 ho         1 K64       0.454000
     62 H14          3.0060     1.2070     2.7880 hc         1 K64       0.051200
     63 H15          4.6250     0.5860     2.4300 hc         1 K64       0.051200
     64 H16          4.4060     2.2840     2.8610 hc         1 K64       0.051200
     65 H17          5.6440     2.9420     0.7220 hc         1 K64       0.051200
     66 H18          5.7990     1.2630     0.1910 hc         1 K64       0.051200
     67 H19          5.0290     2.4590    -0.8630 hc         1 K64       0.051200
     68 H10          4.5530    -0.3850    -1.4450 hn         1 K64       0.315500
     69 H8           4.5200    -3.0120    -1.4580 h1         1 K64       0.061700
     70 H9           5.0370    -2.8180     0.2220 h1         1 K64       0.061700
     71 H34         -6.9630    -4.3490     2.4880 ho         1 K64       0.470000
     72 H7           5.9920    -2.5680    -3.3070 ha         1 K64       0.110000
     73 H6           8.3070    -2.2440    -4.1400 ha         1 K64       0.116000
     74 H5          10.1300    -1.6290    -2.5560 ha         1 K64       0.115000
     75 H4           9.6370    -1.3400    -0.1440 ha         1 K64       0.114000
     76 H1           6.4360    -0.8940     1.3290 hc         1 K64       0.047700
     77 H2           6.9820    -2.5540     1.6280 hc         1 K64       0.047700
     78 H3           8.1340    -1.2160     1.6820 hc         1 K64       0.047700
@<TRIPOS>BOND
     1     1     2 ar  
     2     1     6 ar  
     3     1    42 1   
     4     2     3 ar  
     5     2    43 1   
     6     3     4 ar  
     7     3    44 1   
     8     4     5 ar  
     9     4     8 1   
    10     5     6 ar  
    11     5     7 1   
    12     6    33 1   
    13     7    45 1   
    14     7    46 1   
    15     7    47 1   
    16     8     9 1   
    17     8    34 2   
    18     9    10 1   
    19     9    48 1   
    20    10    11 1   
    21    10    12 1   
    22    10    49 1   
    23    11    19 1   
    24    11    50 1   
    25    11    51 1   
    26    12    13 1   
    27    12    25 2   
    28    13    14 1   
    29    13    26 1   
    30    13    52 1   
    31    14    15 1   
    32    14    18 1   
    33    15    16 1   
    34    15    29 1   
    35    15    53 1   
    36    16    17 1   
    37    16    27 1   
    38    16    28 1   
    39    17    18 1   
    40    18    54 1   
    41    18    55 1   
    42    19    20 ar  
    43    19    24 ar  
    44    20    21 ar  
    45    20    56 1   
    46    21    22 ar  
    47    21    57 1   
    48    22    23 ar  
    49    22    58 1   
    50    23    24 ar  
    51    23    59 1   
    52    24    60 1   
    53    26    61 1   
    54    27    62 1   
    55    27    63 1   
    56    27    64 1   
    57    28    65 1   
    58    28    66 1   
    59    28    67 1   
    60    29    30 1   
    61    29    32 2   
    62    30    31 1   
    63    30    68 1   
    64    31    35 1   
    65    31    69 1   
    66    31    70 1   
    67    33    71 1   
    68    35    36 ar  
    69    35    40 ar  
    70    36    37 ar  
    71    36    72 1   
    72    37    38 ar  
    73    37    73 1   
    74    38    39 ar  
    75    38    74 1   
    76    39    40 ar  
    77    39    75 1   
    78    40    41 1   
    79    41    76 1   
    80    41    77 1   
    81    41    78 1   
@<TRIPOS>SUBSTRUCTURE
     1 K64         1 TEMP              0 ****  ****    0 ROOT
