@<TRIPOS>MOLECULE
K65
   32    33     1     0     0
SMALL
bcc


@<TRIPOS>ATOM
      1 C10          3.2040    17.3190   -19.3350 ca         1 K65      -0.135000
      2 N12          5.1720    14.0980   -17.5060 ns         1 K65      -0.496100
      3 C13          4.7840    13.3300   -16.4540 c          1 K65       0.680300
      4 C15          3.4010    13.5210   -15.9530 ce         1 K65      -0.231200
      5 S01          5.4130    16.3140   -13.5520 ss         1 K65      -0.038800
      6 C02          3.7580    16.7840   -13.6500 cc         1 K65      -0.145000
      7 C03          3.3320    16.7930   -14.9430 cd         1 K65      -0.087000
      8 C04          4.3380    16.3990   -15.8700 cd         1 K65      -0.076000
      9 C05          5.5200    16.1220   -15.2410 cc         1 K65      -0.096100
     10 C06          4.0990    16.3050   -17.3200 ca         1 K65      -0.026000
     11 C07          4.4990    15.1970   -18.0800 ca         1 K65       0.064600
     12 C08          4.2690    15.1750   -19.4530 ca         1 K65      -0.148000
     13 C09          3.6350    16.2330   -20.0830 ca         1 K65      -0.112000
     14 C11          3.4330    17.3450   -17.9680 ca         1 K65      -0.105000
     15 O14          5.5430    12.5000   -15.9760 o          1 K65      -0.602100
     16 C16          3.0230    13.0230   -14.7810 c2         1 K65      -0.146000
     17 N18          3.4460    16.5810   -11.2850 nv         1 K65      -0.962800
     18 N19          1.9570    17.8810   -12.5860 n2         1 K65      -0.814100
     19 H1           2.6990    18.1480   -19.8120 ha         1 K65       0.137000
     20 H2           6.0780    13.8710   -17.8910 hn         1 K65       0.322500
     21 H3           2.6950    14.0710   -16.5620 ha         1 K65       0.142000
     22 H4           2.3160    17.0360   -15.2220 ha         1 K65       0.170000
     23 H5           6.4560    15.8220   -15.6870 h4         1 K65       0.177000
     24 H6           4.5860    14.3110   -20.0230 ha         1 K65       0.139000
     25 H7           3.4680    16.2010   -21.1510 ha         1 K65       0.136000
     26 H8           3.1120    18.2040   -17.3920 ha         1 K65       0.142000
     27 H9           2.0140    13.1580   -14.4190 ha         1 K65       0.122500
     28 H10          3.7060    12.4780   -14.1430 ha         1 K65       0.122500
     29 H11          2.8720    16.6970   -10.4640 hn         1 K65       0.404800
     30 H12          3.8950    15.6790   -11.3220 hn         1 K65       0.404800
     31 H13          1.4620    17.9900   -11.7050 hn         1 K65       0.371400
     32 C17          2.9660    17.1110   -12.4520 ce         1 K65       0.682800
@<TRIPOS>BOND
     1     1    13 ar  
     2     1    14 ar  
     3     1    19 1   
     4     2     3 1   
     5     2    11 1   
     6     2    20 1   
     7     3     4 1   
     8     3    15 2   
     9     4    16 2   
    10     4    21 1   
    11     5     6 1   
    12     5     9 1   
    13     6     7 2   
    14     6    32 1   
    15     7     8 1   
    16     7    22 1   
    17     8     9 2   
    18     8    10 1   
    19     9    23 1   
    20    10    11 ar  
    21    10    14 ar  
    22    11    12 ar  
    23    12    13 ar  
    24    12    24 1   
    25    13    25 1   
    26    14    26 1   
    27    16    27 1   
    28    16    28 1   
    29    17    29 1   
    30    17    30 1   
    31    17    32 1   
    32    18    31 1   
    33    18    32 2   
@<TRIPOS>SUBSTRUCTURE
     1 K65         1 TEMP              0 ****  ****    0 ROOT
