@<TRIPOS>MOLECULE
K65
   32    33     1     0     0
SMALL
No Charge or Current Charge


@<TRIPOS>ATOM
      1 C10          3.0740    17.3070   -19.2430 ca         1 K65      -0.117000
      2 N12          5.2830    14.1070   -17.5830 ns         1 K65      -0.170000
      3 C13          4.8820    13.1320   -16.6820 c          1 K65       0.613300
      4 C15          3.4700    13.1990   -16.1790 ce         1 K65      -0.281200
      5 S01          5.2330    16.0250   -13.3670 ss         1 K65       0.251000
      6 C02          3.6970    16.8630   -13.5340 cc         1 K65      -0.289900
      7 C03          3.3460    16.9360   -14.8630 cd         1 K65      -0.069000
      8 C04          4.2720    16.3390   -15.7740 cd         1 K65      -0.076000
      9 C05          5.3350    15.7780   -15.1030 cc         1 K65      -0.223000
     10 C06          4.0460    16.2610   -17.2430 ca         1 K65      -0.026000
     11 C07          4.5940    15.2420   -18.0780 ca         1 K65      -0.028000
     12 C08          4.4080    15.2980   -19.4730 ca         1 K65      -0.130000
     13 C09          3.6520    16.3250   -20.0560 ca         1 K65      -0.094000
     14 C11          3.2690    17.2740   -17.8530 ca         1 K65      -0.087000
     15 O14          5.6660    12.2740   -16.2940 o          1 K65      -0.602100
     16 C16          3.0160    12.5340   -15.0870 c2         1 K65      -0.246000
     17 N18          3.4540    17.1870   -11.1380 nv         1 K65      -1.073200
     18 N19          1.8780    17.9950   -12.5120 n2         1 K65      -0.814100
     19 H1           2.4850    18.1050   -19.6910 ha         1 K65       0.119000
     20 H2           6.2200    13.9880   -17.9460 hn         1 K65       0.156000
     21 H3           2.8060    13.8780   -16.7100 ha         1 K65       0.192000
     22 H4           2.4170    17.3980   -15.1810 ha         1 K65       0.152000
     23 H5           6.2050    15.2680   -15.4900 h4         1 K65       0.159000
     24 H6           4.8300    14.5230   -20.1090 ha         1 K65       0.121000
     25 H7           3.5070    16.3520   -21.1340 ha         1 K65       0.118000
     26 H8           2.8420    18.0760   -17.2580 ha         1 K65       0.124000
     27 H9           1.9870    12.6400   -14.7390 ha         1 K65       0.172500
     28 H10          3.6580    11.8690   -14.5070 ha         1 K65       0.172500
     29 H11          2.7660    17.1760   -10.3950 hn         1 K65       0.460000
     30 H12          4.1990    16.5080   -11.0490 hn         1 K65       0.460000
     31 H13          1.6830    18.4700   -11.6260 hn         1 K65       0.371400
     32 C17          2.9710    17.3690   -12.3810 ce         1 K65       0.682800
@<TRIPOS>BOND
     1     1    13 ar  
     2     1    14 ar  
     3     1    19 1   
     4     2     3 1   
     5     2    11 1   
     6     2    20 1   
     7     3     4 1   
     8     3    15 2   
     9     4    16 2   
    10     4    21 1   
    11     5     6 1   
    12     5     9 1   
    13     6     7 2   
    14     6    32 1   
    15     7     8 1   
    16     7    22 1   
    17     8     9 2   
    18     8    10 1   
    19     9    23 1   
    20    10    11 ar  
    21    10    14 ar  
    22    11    12 ar  
    23    12    13 ar  
    24    12    24 1   
    25    13    25 1   
    26    14    26 1   
    27    16    27 1   
    28    16    28 1   
    29    17    29 1   
    30    17    30 1   
    31    17    32 1   
    32    18    31 1   
    33    18    32 2   
@<TRIPOS>SUBSTRUCTURE
     1 K65         1 TEMP              0 ****  ****    0 ROOT
