@<TRIPOS>MOLECULE
K66
   28    29     1     0     0
SMALL
bcc


@<TRIPOS>ATOM
      1 C1          -1.0500    -1.3190    -0.5170 ca         1 K66       0.034100
      2 C2           0.3360    -1.3550    -0.4630 ca         1 K66       0.108400
      3 C3           1.0770    -0.1950    -0.1570 ca         1 K66      -0.035200
      4 C4           0.4300     1.0050     0.1160 ca         1 K66       0.036100
      5 C5          -0.9670     1.0320     0.0560 ca         1 K66      -0.010900
      6 C6          -1.7050    -0.1220    -0.2580 ca         1 K66      -0.006900
      7 BR13         1.3850     2.5480     0.5810 br         1 K66      -0.023100
      8 BR15        -1.8740     2.6350     0.4070 br         1 K66      -0.075100
      9 BR17        -3.5770    -0.0640    -0.3290 br         1 K66      -0.082100
     10 BR19        -1.9460    -2.9040    -0.9380 br         1 K66      -0.072100
     11 N21          1.1590    -2.4140    -0.6580 nc         1 K66      -0.647100
     12 N23          2.3910    -0.5920    -0.2200 na         1 K66      -0.072300
     13 C25          2.3690    -1.9360    -0.4980 cd         1 K66       0.638700
     14 N28          3.5090    -2.6610    -0.6520 nh         1 K66      -0.720600
     15 C30          4.4700    -2.7190     0.4430 c3         1 K66       0.193600
     16 C32          3.3780    -3.9120    -1.3730 c3         1 K66       0.193600
     17 C34          3.5750     0.2450    -0.2560 c3         1 K66      -0.126700
     18 C36          4.0740     0.7310     1.1210 c          1 K66       0.927600
     19 O38          4.9750     1.5850     1.0670 o          1 K66      -0.811300
     20 O40          3.5610     0.2120     2.1260 o          1 K66      -0.811300
     21 H30          4.3160    -3.6230     1.0400 h1         1 K66       0.042367
     22 H30A         5.4860    -2.7350     0.0500 h1         1 K66       0.042367
     23 H30B         4.3620    -1.8690     1.1090 h1         1 K66       0.042367
     24 H32          2.8000    -3.7710    -2.2830 h1         1 K66       0.042367
     25 H32A         4.3750    -4.2520    -1.6510 h1         1 K66       0.042367
     26 H32B         2.9040    -4.6970    -0.7760 h1         1 K66       0.042367
     27 H34          4.3610    -0.3390    -0.7380 h1         1 K66       0.054200
     28 H34A         3.3920     1.0880    -0.9220 h1         1 K66       0.054200
@<TRIPOS>BOND
     1     1     2 ar  
     2     1     6 ar  
     3     1    10 1   
     4     2     3 ar  
     5     2    11 1   
     6     3     4 ar  
     7     3    12 1   
     8     4     5 ar  
     9     4     7 1   
    10     5     6 ar  
    11     5     8 1   
    12     6     9 1   
    13    11    13 2   
    14    12    13 1   
    15    12    17 1   
    16    13    14 1   
    17    14    15 1   
    18    14    16 1   
    19    15    21 1   
    20    15    22 1   
    21    15    23 1   
    22    16    24 1   
    23    16    25 1   
    24    16    26 1   
    25    17    18 1   
    26    17    27 1   
    27    17    28 1   
    28    18    19 1   
    29    18    20 1   
@<TRIPOS>SUBSTRUCTURE
     1 K66         1 TEMP              0 ****  ****    0 ROOT
