@<TRIPOS>MOLECULE
K66
   28    29     1     0     0
SMALL
No Charge or Current Charge


@<TRIPOS>ATOM
      1 C1          -1.1130    -1.2750    -0.6390 ca         1 K66       0.034100
      2 C2           0.2820    -1.3460    -0.4800 ca         1 K66       0.108400
      3 C3           1.0160    -0.2380    -0.1170 ca         1 K66      -0.035200
      4 C4           0.3850     0.9990     0.1670 ca         1 K66       0.036100
      5 C5          -1.0210     1.0850     0.0100 ca         1 K66      -0.010900
      6 C6          -1.7670    -0.0470    -0.4020 ca         1 K66      -0.006900
      7 Br13         1.3500     2.5410     0.8110 br         1 K66      -0.023100
      8 Br15        -1.9320     2.7460     0.3710 br         1 K66      -0.075100
      9 Br17        -3.6780     0.0760    -0.6130 br         1 K66      -0.082100
     10 Br19        -2.0950    -2.8450    -1.1630 br         1 K66      -0.072100
     11 N21          1.0690    -2.4760    -0.6380 nc         1 K66      -0.647100
     12 N23          2.3480    -0.6190    -0.0590 na         1 K66      -0.101600
     13 C25          2.2820    -1.9980    -0.3460 cd         1 K66       0.638700
     14 N28          3.4100    -2.8240    -0.4470 nh         1 K66      -0.720600
     15 C30          4.5860    -2.6480     0.4310 c3         1 K66       0.193600
     16 C32          3.3690    -4.0750    -1.2360 c3         1 K66       0.193600
     17 C34          3.5060     0.2910    -0.2530 c3         1 K66      -0.097400
     18 C36          4.2720     0.6630     1.0320 c          1 K66       0.717000
     19 O38          5.3670     1.1880     0.9000 o          1 K66      -0.706000
     20 O40          3.7780     0.4040     2.1210 o          1 K66      -0.706000
     21 H30          5.0580    -3.6140     0.6530 h1         1 K66       0.042367
     22 H30A         5.3340    -2.0040    -0.0500 h1         1 K66       0.042367
     23 H30B         4.2910    -2.1950     1.3870 h1         1 K66       0.042367
     24 H32          2.8560    -3.9110    -2.1930 h1         1 K66       0.042367
     25 H32A         4.3830    -4.4350    -1.4550 h1         1 K66       0.042367
     26 H32B         2.8340    -4.8590    -0.6830 h1         1 K66       0.042367
     27 H34          4.2160    -0.1930    -0.9330 h1         1 K66       0.054200
     28 H34A         3.1800     1.2110    -0.7480 h1         1 K66       0.054200
@<TRIPOS>BOND
     1     1     2 ar  
     2     1     6 ar  
     3     1    10 1   
     4     2     3 ar  
     5     2    11 1   
     6     3     4 ar  
     7     3    12 1   
     8     4     5 ar  
     9     4     7 1   
    10     5     6 ar  
    11     5     8 1   
    12     6     9 1   
    13    11    13 2   
    14    12    13 1   
    15    12    17 1   
    16    13    14 1   
    17    14    15 1   
    18    14    16 1   
    19    15    21 1   
    20    15    22 1   
    21    15    23 1   
    22    16    24 1   
    23    16    25 1   
    24    16    26 1   
    25    17    18 1   
    26    17    27 1   
    27    17    28 1   
    28    18    19 1   
    29    18    20 1   
@<TRIPOS>SUBSTRUCTURE
     1 K66         1 TEMP              0 ****  ****    0 ROOT
