@<TRIPOS>MOLECULE
K67
   70    73     1     0     0
SMALL
abcg2


@<TRIPOS>ATOM
      1 O2           1.6210    -1.2820    -2.7740 o          1 K67      -0.534000
      2 S1           2.4830    -1.7860    -1.7210 sy         1 K67       1.159600
      3 O1           3.6500    -2.5880    -2.0470 o          1 K67      -0.534000
      4 C9           2.9910    -0.3980    -0.7660 ca         1 K67      -0.360500
      5 C10          2.2550     0.7820    -0.8250 ca         1 K67       0.026500
      6 C11          2.6640     1.8790    -0.1020 ca         1 K67      -0.198500
      7 C12          3.8090     1.8110     0.7000 ca         1 K67       0.217100
      8 O7           4.1160     2.9170     1.3820 os         1 K67      -0.335100
      9 C23          5.2260     2.9030     2.2760 c3         1 K67       0.164600
     10 C24          5.2980     4.2500     2.9520 c3         1 K67      -0.096100
     11 C13          4.5510     0.6290     0.7430 ca         1 K67      -0.198500
     12 C14          4.1380    -0.4710     0.0110 ca         1 K67       0.026500
     13 N1           1.5580    -2.7780    -0.7510 nu         1 K67      -0.896100
     14 C8           0.3930    -2.2940    -0.1020 ca         1 K67       0.270000
     15 C3           0.4220    -1.9180     1.2220 ca         1 K67      -0.078300
     16 C2           1.6470    -1.9700     2.0800 c3         1 K67      -0.142100
     17 C16          2.0650    -0.6320     2.6640 c          1 K67       0.571100
     18 O3           1.4660     0.3910     2.4410 o          1 K67      -0.489100
     19 C41          3.2520    -0.6970     3.5850 c3         1 K67      -0.199100
     20 C4          -0.7790    -1.5160     1.8430 ca         1 K67      -0.076000
     21 C7          -0.8300    -2.2840    -0.8370 ca         1 K67      -0.016000
     22 C37         -0.9190    -2.7890    -2.1540 ca         1 K67      -0.055000
     23 C38         -2.0930    -2.7220    -2.8540 ca         1 K67      -0.108000
     24 C39         -3.2310    -2.1310    -2.2790 ca         1 K67      -0.086000
     25 C40         -3.1880    -1.6710    -0.9920 ca         1 K67      -0.118000
     26 C6          -2.0040    -1.7690    -0.2270 ca         1 K67      -0.041000
     27 C5          -1.9480    -1.4090     1.1480 ca         1 K67       0.253000
     28 N2          -3.0990    -0.9400     1.8210 nu         1 K67      -0.873100
     29 S2          -3.2020     0.6940     2.1630 sy         1 K67       1.152600
     30 O6          -4.5910     0.9140     2.5300 o          1 K67      -0.532500
     31 O5          -2.1440     1.0080     3.1050 o          1 K67      -0.532500
     32 C17         -2.8470     1.5150     0.6510 ca         1 K67      -0.360500
     33 C18         -1.5240     1.7940     0.3100 ca         1 K67       0.029500
     34 C19         -1.2540     2.3870    -0.9030 ca         1 K67      -0.202000
     35 C20         -2.2890     2.7040    -1.7900 ca         1 K67       0.211100
     36 C21         -3.6090     2.4140    -1.4410 ca         1 K67      -0.202000
     37 C22         -3.8810     1.8180    -0.2210 ca         1 K67       0.029500
     38 O8          -1.9240     3.2800    -2.9380 os         1 K67      -0.340100
     39 C25         -2.9250     3.6460    -3.8860 c3         1 K67       0.163600
     40 C26         -2.2390     4.2940    -5.0640 c3         1 K67      -0.096100
     41 H1           1.3700     0.8460    -1.4430 ha         1 K67       0.134000
     42 H2           2.1000     2.8020    -0.1410 ha         1 K67       0.128000
     43 H3           5.0980     2.1080     3.0170 h1         1 K67       0.036200
     44 H4           6.1500     2.6990     1.7240 h1         1 K67       0.036200
     45 H5           6.1450     4.2610     3.6380 hc         1 K67       0.051700
     46 H6           5.4420     5.0530     2.2290 hc         1 K67       0.051700
     47 H7           4.3960     4.4550     3.5280 hc         1 K67       0.051700
     48 H8           5.4460     0.5430     1.3410 ha         1 K67       0.128000
     49 H9           4.7290    -1.3770     0.0480 ha         1 K67       0.134000
     50 H10          2.1340    -3.4180    -0.2150 hn         1 K67       0.491000
     51 H11          1.4750    -2.6500     2.9230 hc         1 K67       0.065200
     52 H12          2.5130    -2.3910     1.5680 hc         1 K67       0.065200
     53 H13          4.0630    -1.2810     3.1490 hc         1 K67       0.060033
     54 H14          3.6130     0.2970     3.8370 hc         1 K67       0.060033
     55 H15          2.9560    -1.2060     4.5060 hc         1 K67       0.060033
     56 H16         -0.7720    -1.2890     2.9000 ha         1 K67       0.148000
     57 H17         -0.0540    -3.2470    -2.6080 ha         1 K67       0.133000
     58 H18         -2.1450    -3.1230    -3.8580 ha         1 K67       0.120000
     59 H19         -4.1460    -2.0530    -2.8510 ha         1 K67       0.115000
     60 H20         -4.0800    -1.2310    -0.5680 ha         1 K67       0.104000
     61 H21         -3.9860    -1.3040     1.4910 hn         1 K67       0.492000
     62 H22         -0.7110     1.5480     0.9810 ha         1 K67       0.141000
     63 H23         -0.2350     2.6270    -1.1810 ha         1 K67       0.125500
     64 H24         -4.4350     2.6460    -2.0980 ha         1 K67       0.125500
     65 H25         -4.9090     1.5990     0.0370 ha         1 K67       0.141000
     66 H26         -3.4780     2.7570    -4.2030 h1         1 K67       0.038200
     67 H27         -3.6380     4.3380    -3.4270 h1         1 K67       0.038200
     68 H28         -1.5370     3.6110    -5.5420 hc         1 K67       0.050700
     69 H29         -2.9890     4.5750    -5.8020 hc         1 K67       0.050700
     70 H30         -1.7050     5.1970    -4.7680 hc         1 K67       0.050700
@<TRIPOS>BOND
     1     1     2 2   
     2     2     3 2   
     3     2     4 1   
     4     2    13 1   
     5     4     5 ar  
     6     4    12 ar  
     7     5     6 ar  
     8     5    41 1   
     9     6     7 ar  
    10     6    42 1   
    11     7     8 1   
    12     7    11 ar  
    13     8     9 1   
    14     9    10 1   
    15     9    43 1   
    16     9    44 1   
    17    10    45 1   
    18    10    46 1   
    19    10    47 1   
    20    11    12 ar  
    21    11    48 1   
    22    12    49 1   
    23    13    14 1   
    24    13    50 1   
    25    14    15 ar  
    26    14    21 ar  
    27    15    16 1   
    28    15    20 ar  
    29    16    17 1   
    30    16    51 1   
    31    16    52 1   
    32    17    18 2   
    33    17    19 1   
    34    19    53 1   
    35    19    54 1   
    36    19    55 1   
    37    20    27 ar  
    38    20    56 1   
    39    21    22 ar  
    40    21    26 ar  
    41    22    23 ar  
    42    22    57 1   
    43    23    24 ar  
    44    23    58 1   
    45    24    25 ar  
    46    24    59 1   
    47    25    26 ar  
    48    25    60 1   
    49    26    27 ar  
    50    27    28 1   
    51    28    29 1   
    52    28    61 1   
    53    29    30 2   
    54    29    31 2   
    55    29    32 1   
    56    32    33 ar  
    57    32    37 ar  
    58    33    34 ar  
    59    33    62 1   
    60    34    35 ar  
    61    34    63 1   
    62    35    36 ar  
    63    35    38 1   
    64    36    37 ar  
    65    36    64 1   
    66    37    65 1   
    67    38    39 1   
    68    39    40 1   
    69    39    66 1   
    70    39    67 1   
    71    40    68 1   
    72    40    69 1   
    73    40    70 1   
@<TRIPOS>SUBSTRUCTURE
     1 K67         1 TEMP              0 ****  ****    0 ROOT
