@<TRIPOS>MOLECULE
K67
   70    73     1     0     0
SMALL
No Charge or Current Charge


@<TRIPOS>ATOM
      1 O2           1.9810    -3.1880    -2.5510 o          1 K67      -0.534000
      2 S1           2.5600    -2.8960    -1.2390 sy         1 K67       1.159600
      3 O1           3.8180    -3.4920    -0.7900 o          1 K67      -0.534000
      4 C9           2.5990    -1.1240    -0.9860 ca         1 K67      -0.360500
      5 C10          1.4870    -0.3450    -1.3590 ca         1 K67       0.026500
      6 C11          1.5170     1.0450    -1.1720 ca         1 K67      -0.198500
      7 C12          2.6440     1.6670    -0.6170 ca         1 K67       0.217100
      8 O7           2.6080     3.0340    -0.4450 os         1 K67      -0.335100
      9 C23          3.6440     3.7460     0.2480 c3         1 K67       0.164600
     10 C24          3.2300     5.2250     0.3070 c3         1 K67      -0.096100
     11 C13          3.7660     0.8880    -0.2660 ca         1 K67      -0.198500
     12 C14          3.7470    -0.5030    -0.4580 ca         1 K67       0.026500
     13 N1           1.4430    -3.4940    -0.1280 nu         1 K67      -0.896100
     14 C8           0.1990    -2.9300     0.1910 ca         1 K67       0.270000
     15 C3           0.0580    -2.2160     1.4080 ca         1 K67      -0.078300
     16 C2           1.1600    -2.1410     2.4790 c3         1 K67      -0.142100
     17 C16          1.9420    -0.8180     2.4950 c          1 K67       0.571100
     18 O3           1.3900     0.2680     2.3820 o          1 K67      -0.489100
     19 C41          3.4420    -0.9220     2.7670 c3         1 K67      -0.199100
     20 C4          -1.1590    -1.5740     1.6990 ca         1 K67      -0.076000
     21 C7          -0.9340    -3.0760    -0.6610 ca         1 K67      -0.016000
     22 C37         -0.8870    -3.9210    -1.7970 ca         1 K67      -0.055000
     23 C38         -1.9890    -4.0490    -2.6540 ca         1 K67      -0.108000
     24 C39         -3.1680    -3.3490    -2.3850 ca         1 K67      -0.086000
     25 C40         -3.2550    -2.5420    -1.2420 ca         1 K67      -0.118000
     26 C6          -2.1530    -2.4070    -0.3570 ca         1 K67      -0.041000
     27 C5          -2.2580    -1.6310     0.8260 ca         1 K67       0.253000
     28 N2          -3.4620    -0.9960     1.1620 nu         1 K67      -0.873100
     29 S2          -3.7330     0.4570     1.9580 sy         1 K67       1.152600
     30 O6          -5.1380     0.7190     1.6460 o          1 K67      -0.532500
     31 O5          -3.2610     0.2350     3.3270 o          1 K67      -0.532500
     32 C17         -2.6970     1.6460     1.1080 ca         1 K67      -0.360500
     33 C18         -1.4540     2.0240     1.6530 ca         1 K67       0.029500
     34 C19         -0.6580     2.9650     0.9800 ca         1 K67      -0.202000
     35 C20         -1.0870     3.5280    -0.2300 ca         1 K67       0.211100
     36 C21         -2.3280     3.1410    -0.7780 ca         1 K67      -0.202000
     37 C22         -3.1310     2.2020    -0.1100 ca         1 K67       0.029500
     38 O8          -0.2580     4.4430    -0.8450 os         1 K67      -0.340100
     39 C25         -0.5690     5.0220    -2.1210 c3         1 K67       0.163600
     40 C26          0.6060     5.9290    -2.5170 c3         1 K67      -0.096100
     41 H1           0.6020    -0.8100    -1.7920 ha         1 K67       0.134000
     42 H2           0.6580     1.6450    -1.4560 ha         1 K67       0.128000
     43 H3           3.7610     3.3600     1.2690 h1         1 K67       0.036200
     44 H4           4.6030     3.6550    -0.2780 h1         1 K67       0.036200
     45 H5           3.9710     5.8040     0.8690 hc         1 K67       0.051700
     46 H6           3.1600     5.6460    -0.7020 hc         1 K67       0.051700
     47 H7           2.2580     5.3350     0.8020 hc         1 K67       0.051700
     48 H8           4.6600     1.3420     0.1510 ha         1 K67       0.128000
     49 H9           4.6260    -1.0890    -0.1910 ha         1 K67       0.134000
     50 H10          2.0320    -3.7000     0.6650 hn         1 K67       0.491000
     51 H11          0.7060    -2.2390     3.4720 hc         1 K67       0.065200
     52 H12          1.8610    -2.9810     2.4330 hc         1 K67       0.065200
     53 H13          3.8870    -1.6860     2.1200 hc         1 K67       0.060033
     54 H14          3.9530     0.0440     2.6890 hc         1 K67       0.060033
     55 H15          3.5800    -1.3540     3.7640 hc         1 K67       0.060033
     56 H16         -1.2450    -1.0390     2.6370 ha         1 K67       0.148000
     57 H17         -0.0050    -4.5140    -2.0130 ha         1 K67       0.133000
     58 H18         -1.9280    -4.7000    -3.5240 ha         1 K67       0.120000
     59 H19         -4.0230    -3.4470    -3.0500 ha         1 K67       0.115000
     60 H20         -4.1980    -2.0360    -1.0580 ha         1 K67       0.104000
     61 H21         -4.2210    -1.0740     0.5040 hn         1 K67       0.492000
     62 H22         -1.1020     1.5980     2.5910 ha         1 K67       0.141000
     63 H23          0.3020     3.2540     1.3970 ha         1 K67       0.125500
     64 H24         -2.6860     3.5570    -1.7140 ha         1 K67       0.125500
     65 H25         -4.0880     1.9130    -0.5430 ha         1 K67       0.141000
     66 H26         -0.6980     4.2420    -2.8830 h1         1 K67       0.038200
     67 H27         -1.4900     5.6170    -2.0650 h1         1 K67       0.038200
     68 H28          1.5270     5.3420    -2.6150 hc         1 K67       0.050700
     69 H29          0.4040     6.4140    -3.4790 hc         1 K67       0.050700
     70 H30          0.7640     6.7090    -1.7640 hc         1 K67       0.050700
@<TRIPOS>BOND
     1     1     2 2   
     2     2     3 2   
     3     2     4 1   
     4     2    13 1   
     5     4     5 ar  
     6     4    12 ar  
     7     5     6 ar  
     8     5    41 1   
     9     6     7 ar  
    10     6    42 1   
    11     7     8 1   
    12     7    11 ar  
    13     8     9 1   
    14     9    10 1   
    15     9    43 1   
    16     9    44 1   
    17    10    45 1   
    18    10    46 1   
    19    10    47 1   
    20    11    12 ar  
    21    11    48 1   
    22    12    49 1   
    23    13    14 1   
    24    13    50 1   
    25    14    15 ar  
    26    14    21 ar  
    27    15    16 1   
    28    15    20 ar  
    29    16    17 1   
    30    16    51 1   
    31    16    52 1   
    32    17    18 2   
    33    17    19 1   
    34    19    53 1   
    35    19    54 1   
    36    19    55 1   
    37    20    27 ar  
    38    20    56 1   
    39    21    22 ar  
    40    21    26 ar  
    41    22    23 ar  
    42    22    57 1   
    43    23    24 ar  
    44    23    58 1   
    45    24    25 ar  
    46    24    59 1   
    47    25    26 ar  
    48    25    60 1   
    49    26    27 ar  
    50    27    28 1   
    51    28    29 1   
    52    28    61 1   
    53    29    30 2   
    54    29    31 2   
    55    29    32 1   
    56    32    33 ar  
    57    32    37 ar  
    58    33    34 ar  
    59    33    62 1   
    60    34    35 ar  
    61    34    63 1   
    62    35    36 ar  
    63    35    38 1   
    64    36    37 ar  
    65    36    64 1   
    66    37    65 1   
    67    38    39 1   
    68    39    40 1   
    69    39    66 1   
    70    39    67 1   
    71    40    68 1   
    72    40    69 1   
    73    40    70 1   
@<TRIPOS>SUBSTRUCTURE
     1 K67         1 TEMP              0 ****  ****    0 ROOT
