@<TRIPOS>MOLECULE
K68
   20    21     1     0     0
SMALL
abcg2


@<TRIPOS>ATOM
      1 C1          -1.2800     1.2480     0.1110 ca         1 K68       0.052100
      2 C2          -0.0300     1.8210     0.3300 ca         1 K68       0.081400
      3 C3           1.1280     1.0240     0.3980 ca         1 K68      -0.028200
      4 C4           1.0480    -0.3610     0.2590 ca         1 K68       0.050100
      5 C5          -0.2050    -0.9240     0.0360 ca         1 K68      -0.001900
      6 C6          -1.3670    -0.1250    -0.0410 ca         1 K68      -0.013900
      7 BR13        -2.7590     2.3830     0.0340 br         1 K68      -0.067100
      8 BR15        -3.0380    -0.9140    -0.3470 br         1 K68      -0.080100
      9 BR17        -0.3550    -2.7810    -0.1660 br         1 K68      -0.074100
     10 BR19         2.5740    -1.4360     0.3850 br         1 K68      -0.034100
     11 N21          0.2810     3.1350     0.5030 nc         1 K68      -0.595100
     12 C23          1.5730     3.1360     0.6700 cd         1 K68       0.426700
     13 N25          2.1450     1.9110     0.6350 na         1 K68      -0.090600
     14 C28          3.5800     1.7060     0.6460 c3         1 K68      -0.100400
     15 C30          4.1550     1.3280    -0.7390 c          1 K68       0.718000
     16 O32          3.3720     1.3500    -1.6990 o          1 K68      -0.699000
     17 O34          5.3690     1.0640    -0.7280 o          1 K68      -0.699000
     18 H23          2.1720     4.0200     0.8320 h5         1 K68       0.058800
     19 H28          4.0240     2.6510     0.9670 h1         1 K68       0.048700
     20 H28A         3.8530     0.9730     1.4020 h1         1 K68       0.048700
@<TRIPOS>BOND
     1     1     2 ar  
     2     1     6 ar  
     3     1     7 1   
     4     2     3 ar  
     5     2    11 1   
     6     3     4 ar  
     7     3    13 1   
     8     4     5 ar  
     9     4    10 1   
    10     5     6 ar  
    11     5     9 1   
    12     6     8 1   
    13    11    12 2   
    14    12    13 1   
    15    12    18 1   
    16    13    14 1   
    17    14    15 1   
    18    14    19 1   
    19    14    20 1   
    20    15    16 1   
    21    15    17 1   
@<TRIPOS>SUBSTRUCTURE
     1 K68         1 TEMP              0 ****  ****    0 ROOT
