@<TRIPOS>MOLECULE
K68
   20    21     1     0     0
SMALL
No Charge or Current Charge


@<TRIPOS>ATOM
      1 C1          -1.3240     1.2210     0.1570 ca         1 K68       0.052100
      2 C2          -0.0610     1.8200     0.3050 ca         1 K68       0.081400
      3 C3           1.0870     1.0630     0.3570 ca         1 K68      -0.028200
      4 C4           1.0400    -0.3510     0.2470 ca         1 K68       0.050100
      5 C5          -0.2280    -0.9680     0.0970 ca         1 K68      -0.001900
      6 C6          -1.4080    -0.1840     0.0550 ca         1 K68      -0.013900
      7 Br13        -2.9010     2.3220     0.0930 br         1 K68      -0.067100
      8 Br15        -3.1280    -1.0280    -0.1490 br         1 K68      -0.080100
      9 Br17        -0.3580    -2.8860    -0.0550 br         1 K68      -0.074100
     10 Br19         2.6110    -1.4670     0.2760 br         1 K68      -0.034100
     11 N21          0.1960     3.1790     0.4080 nc         1 K68      -0.595100
     12 C23          1.5360     3.2170     0.5200 cd         1 K68       0.426700
     13 N25          2.1410     1.9510     0.5120 na         1 K68      -0.090600
     14 C28          3.5840     1.6550     0.6520 c3         1 K68      -0.100400
     15 C30          4.3200     1.4650    -0.6880 c          1 K68       0.718000
     16 O32          4.0410     2.2130    -1.6140 o          1 K68      -0.699000
     17 O34          5.1650     0.5860    -0.7590 o          1 K68      -0.699000
     18 H23          2.1330     4.1150     0.6240 h5         1 K68       0.058800
     19 H28          4.0590     2.5050     1.1570 h1         1 K68       0.048700
     20 H28A         3.7330     0.7810     1.2940 h1         1 K68       0.048700
@<TRIPOS>BOND
     1     1     2 ar  
     2     1     6 ar  
     3     1     7 1   
     4     2     3 ar  
     5     2    11 1   
     6     3     4 ar  
     7     3    13 1   
     8     4     5 ar  
     9     4    10 1   
    10     5     6 ar  
    11     5     9 1   
    12     6     8 1   
    13    11    12 2   
    14    12    13 1   
    15    12    18 1   
    16    13    14 1   
    17    14    15 1   
    18    14    19 1   
    19    14    20 1   
    20    15    16 1   
    21    15    17 1   
@<TRIPOS>SUBSTRUCTURE
     1 K68         1 TEMP              0 ****  ****    0 ROOT
