@<TRIPOS>MOLECULE
K69
   45    48     1     0     0
SMALL
bcc


@<TRIPOS>ATOM
      1 N3         -27.0050     9.7440    11.7450 nb         1 K69      -0.816000
      2 C16        -23.7170     9.1430    18.3480 ca         1 K69      -0.003400
      3 C14        -25.5720     8.7870    16.9140 ca         1 K69      -0.138000
      4 C12        -23.8970     6.2170    11.6710 c6         1 K69       0.117900
      5 C9         -27.7410    10.5920    12.4330 ca         1 K69       0.718900
      6 C15        -24.6220     8.2650    17.7880 ca         1 K69      -0.118000
      7 N2         -26.5560    10.6410    15.6940 nu         1 K69      -0.766300
      8 C13        -24.0990     7.5920    12.2870 c6         1 K69       0.182300
      9 C11        -25.0440     6.8020     9.7520 c6         1 K69       0.117900
     10 C10        -25.2920     8.2080    10.2610 c6         1 K69       0.182300
     11 C8         -26.0140     9.1250    12.4130 ca         1 K69       0.738200
     12 O1         -23.8470     6.2650    10.2670 os         1 K69      -0.396600
     13 N1         -22.7320    11.1010    18.7520 n          1 K69      -0.359000
     14 C7         -25.7910     9.4020    13.7660 ca         1 K69      -0.507600
     15 C3         -23.7530    10.5080    18.0470 ca         1 K69       0.017600
     16 C1         -22.0470    10.1510    19.4770 c          1 K69       0.806500
     17 C2         -22.4020    12.5030    18.7200 c3         1 K69       0.104300
     18 C4         -24.6760    11.0300    17.1640 ca         1 K69      -0.150000
     19 C5         -25.5930    10.1440    16.5940 ca         1 K69       0.144600
     20 C6         -26.6550    10.3030    14.3820 ca         1 K69       0.733200
     21 N5         -25.2690     8.2290    11.7150 nh         1 K69      -0.775300
     22 N4         -27.6440    10.9130    13.7080 nb         1 K69      -0.814000
     23 N          -22.6740     8.9520    19.2250 n          1 K69      -0.358000
     24 C          -22.2870     7.6850    19.7900 c3         1 K69       0.105300
     25 H1         -26.3080     8.1270    16.4730 ha         1 K69       0.149000
     26 H2         -24.7080     5.5540    12.0050 h1         1 K69       0.054200
     27 H3         -22.9540     5.7980    12.0240 h1         1 K69       0.054200
     28 H4         -28.5330    11.0890    11.8780 h5         1 K69       0.042100
     29 H5         -24.6090     7.2090    18.0220 ha         1 K69       0.145000
     30 H6         -27.1050    11.4380    15.9790 hn         1 K69       0.456800
     31 H7         -23.2080     8.2150    12.1370 h1         1 K69       0.060450
     32 H8         -24.2230     7.4490    13.3590 h1         1 K69       0.060450
     33 H9         -25.8960     6.1600    10.0160 h1         1 K69       0.054200
     34 H10        -24.9580     6.8180     8.6650 h1         1 K69       0.054200
     35 H11        -24.5250     8.8870     9.8640 h1         1 K69       0.060450
     36 H12        -26.2560     8.5570     9.9040 h1         1 K69       0.060450
     37 H13        -24.9800     8.9620    14.3230 ha         1 K69       0.153000
     38 H14        -21.5810    12.6900    19.4040 h1         1 K69       0.052700
     39 H15        -22.1000    12.8080    17.7180 h1         1 K69       0.052700
     40 H16        -23.2570    13.1040    19.0290 h1         1 K69       0.052700
     41 H17        -24.6920    12.0810    16.9090 ha         1 K69       0.149000
     42 H18        -21.4330     7.8330    20.4430 h1         1 K69       0.052033
     43 H19        -23.1030     7.2600    20.3740 h1         1 K69       0.052033
     44 H20        -22.0120     6.9810    19.0050 h1         1 K69       0.052033
     45 O          -21.0800    10.3360    20.1920 o          1 K69      -0.634500
@<TRIPOS>BOND
     1     1     5 ar  
     2     1    11 ar  
     3     2     6 ar  
     4     2    15 ar  
     5     2    23 1   
     6     3     6 ar  
     7     3    19 ar  
     8     3    25 1   
     9     4     8 1   
    10     4    12 1   
    11     4    26 1   
    12     4    27 1   
    13     5    22 ar  
    14     5    28 1   
    15     6    29 1   
    16     7    19 1   
    17     7    20 1   
    18     7    30 1   
    19     8    21 1   
    20     8    31 1   
    21     8    32 1   
    22     9    10 1   
    23     9    12 1   
    24     9    33 1   
    25     9    34 1   
    26    10    21 1   
    27    10    35 1   
    28    10    36 1   
    29    11    14 ar  
    30    11    21 1   
    31    13    15 1   
    32    13    16 1   
    33    13    17 1   
    34    14    20 ar  
    35    14    37 1   
    36    15    18 ar  
    37    16    23 1   
    38    16    45 2   
    39    17    38 1   
    40    17    39 1   
    41    17    40 1   
    42    18    19 ar  
    43    18    41 1   
    44    20    22 ar  
    45    23    24 1   
    46    24    42 1   
    47    24    43 1   
    48    24    44 1   
@<TRIPOS>SUBSTRUCTURE
     1 K69         1 TEMP              0 ****  ****    0 ROOT
