@<TRIPOS>MOLECULE
K69
   45    48     1     0     0
SMALL
No Charge or Current Charge


@<TRIPOS>ATOM
      1 N3         -27.2130     9.6080    11.7280 nb         1 K69      -0.290000
      2 C16        -23.6030     9.2990    18.5650 ca         1 K69      -0.003400
      3 C14        -25.0390     8.9100    16.6680 ca         1 K69      -0.120000
      4 C12        -24.1920     5.8190    11.2640 c6         1 K69       0.141100
      5 C9         -27.8020    10.5700    12.4630 ca         1 K69       0.192900
      6 C15        -24.1990     8.3930    17.6780 ca         1 K69      -0.100000
      7 N2         -25.9750    10.8330    15.4610 nu         1 K69      -0.959900
      8 C13        -24.4050     7.1470    12.0510 c6         1 K69       0.182300
      9 C11        -25.2460     6.6990     9.2970 c6         1 K69       0.141100
     10 C10        -25.5140     8.0750     9.9770 c6         1 K69       0.182300
     11 C8         -26.1330     9.0050    12.2620 ca         1 K69       0.409900
     12 O1         -24.0670     6.0710     9.8470 os         1 K69      -0.443000
     13 N1         -22.7600    11.2990    19.2040 n          1 K69      -0.292000
     14 C7         -25.6630     9.3750    13.5310 ca         1 K69      -0.359000
     15 C3         -23.7480    10.6700    18.3960 ca         1 K69       0.017600
     16 C1         -22.0220    10.3350    19.9050 c          1 K69       0.597000
     17 C2         -22.7290    12.7390    19.5130 c3         1 K69       0.104300
     18 C4         -24.4960    11.2000    17.3370 ca         1 K69      -0.132000
     19 C5         -25.1800    10.3090    16.4840 ca         1 K69       0.283000
     20 C6         -26.3610    10.3710    14.2160 ca         1 K69       0.404900
     21 N5         -25.5070     7.9990    11.4840 nh         1 K69      -0.775300
     22 N4         -27.4240    10.9870    13.6850 nb         1 K69      -0.288000
     23 N          -22.5240     9.1000    19.4700 n          1 K69      -0.291000
     24 C          -22.2010     7.8150    20.1140 c3         1 K69       0.105300
     25 H1         -25.5580     8.2200    16.0110 ha         1 K69       0.131000
     26 H2         -25.0430     5.1450    11.4370 h1         1 K69       0.054200
     27 H3         -23.2830     5.3160    11.6230 h1         1 K69       0.054200
     28 H4         -28.6700    11.0590    12.0250 h5         1 K69       0.042100
     29 H5         -24.0220     7.3230    17.7640 ha         1 K69       0.127000
     30 H6         -26.3490    11.7610    15.6600 hn         1 K69       0.512000
     31 H7         -23.4600     7.7110    12.0540 h1         1 K69       0.060450
     32 H8         -24.6270     6.8760    13.0930 h1         1 K69       0.060450
     33 H9         -26.1110     6.0370     9.4460 h1         1 K69       0.054200
     34 H10        -25.1100     6.8400     8.2160 h1         1 K69       0.054200
     35 H11        -24.7460     8.7870     9.6400 h1         1 K69       0.060450
     36 H12        -26.4790     8.4420     9.6000 h1         1 K69       0.060450
     37 H13        -24.7720     8.9350    13.9590 ha         1 K69       0.135000
     38 H14        -21.7870    12.9990    20.0130 h1         1 K69       0.052700
     39 H15        -22.8090    13.3190    18.5850 h1         1 K69       0.052700
     40 H16        -23.5690    12.9920    20.1710 h1         1 K69       0.052700
     41 H17        -24.5330    12.2710    17.1650 ha         1 K69       0.131000
     42 H18        -21.2180     7.8710    20.5990 h1         1 K69       0.052033
     43 H19        -22.9630     7.5810    20.8670 h1         1 K69       0.052033
     44 H20        -22.1790     7.0180    19.3610 h1         1 K69       0.052033
     45 O          -21.1580    10.5300    20.7500 o          1 K69      -0.559000
@<TRIPOS>BOND
     1     1     5 ar  
     2     1    11 ar  
     3     2     6 ar  
     4     2    15 ar  
     5     2    23 1   
     6     3     6 ar  
     7     3    19 ar  
     8     3    25 1   
     9     4     8 1   
    10     4    12 1   
    11     4    26 1   
    12     4    27 1   
    13     5    22 ar  
    14     5    28 1   
    15     6    29 1   
    16     7    19 1   
    17     7    20 1   
    18     7    30 1   
    19     8    21 1   
    20     8    31 1   
    21     8    32 1   
    22     9    10 1   
    23     9    12 1   
    24     9    33 1   
    25     9    34 1   
    26    10    21 1   
    27    10    35 1   
    28    10    36 1   
    29    11    14 ar  
    30    11    21 1   
    31    13    15 1   
    32    13    16 1   
    33    13    17 1   
    34    14    20 ar  
    35    14    37 1   
    36    15    18 ar  
    37    16    23 1   
    38    16    45 2   
    39    17    38 1   
    40    17    39 1   
    41    17    40 1   
    42    18    19 ar  
    43    18    41 1   
    44    20    22 ar  
    45    23    24 1   
    46    24    42 1   
    47    24    43 1   
    48    24    44 1   
@<TRIPOS>SUBSTRUCTURE
     1 K69         1 TEMP              0 ****  ****    0 ROOT
