@<TRIPOS>MOLECULE
K6B
   31    33     1     0     0
SMALL
No Charge or Current Charge


@<TRIPOS>ATOM
      1 C10        -19.7370    22.0990     4.6600 ca         1 K6B      -0.127000
      2 C13        -19.8590    22.2390     8.5010 cp         1 K6B       0.462500
      3 C15        -20.8300    22.2360    10.5770 ca         1 K6B       0.617900
      4 C17        -19.0790    23.8300    10.1850 ca         1 K6B      -0.032000
      5 C02        -19.7960    20.3080     6.7730 ca         1 K6B      -0.126000
      6 C03        -19.7450    19.8290     5.4850 ca         1 K6B      -0.094800
      7 C04        -19.7050    18.3870     5.4310 cc         1 K6B      -0.141200
      8 C05        -19.6930    17.8150     6.7040 cd         1 K6B      -0.220000
      9 C06        -19.6840    16.3860     7.0140 cf         1 K6B       0.692500
     10 C09        -19.7210    20.7140     4.3990 ca         1 K6B      -0.055000
     11 C11        -19.7800    22.5790     5.9890 ca         1 K6B      -0.076000
     12 C12        -19.8190    21.6910     7.1020 cp         1 K6B      -0.122500
     13 C16        -20.0240    23.2710    11.0550 ca         1 K6B      -0.230000
     14 C18        -19.0060    23.3030     8.8860 ca         1 K6B      -0.205000
     15 N07        -20.1680    15.9140     8.0880 n2         1 K6B      -0.850100
     16 N08        -19.2290    15.5640     6.0840 nv         1 K6B      -1.029200
     17 N14        -20.7700    21.7230     9.3590 nb         1 K6B      -0.774000
     18 N19        -21.7600    21.6240    11.3080 nv         1 K6B      -1.057900
     19 S01        -19.7560    19.0400     8.0170 ss         1 K6B       0.171400
     20 H101       -19.7140    22.8040     3.8320 ha         1 K6B       0.117000
     21 H171       -18.4280    24.6430    10.5030 ha         1 K6B       0.116000
     22 H041       -19.7040    17.8110     4.5080 ha         1 K6B       0.206000
     23 H091       -19.6810    20.3420     3.3770 ha         1 K6B       0.118000
     24 H111       -19.7950    23.6530     6.1590 ha         1 K6B       0.113000
     25 H161       -20.1320    23.6360    12.0720 ha         1 K6B       0.123000
     26 H181       -18.2890    23.7050     8.1760 ha         1 K6B       0.125000
     27 H071       -20.5600    16.6970     8.6240 hn         1 K6B       0.391400
     28 H081       -19.0850    14.6010     6.3570 hn         1 K6B       0.468500
     29 H1         -18.6040    15.9320     5.3790 hn         1 K6B       0.468500
     30 H192       -22.0940    20.7550    10.9110 hn         1 K6B       0.475000
     31 H191       -21.6580    21.6530    12.3160 hn         1 K6B       0.475000
@<TRIPOS>BOND
     1     1    10 ar  
     2     1    11 ar  
     3     1    20 1   
     4     2    12 1   
     5     2    14 ar  
     6     2    17 ar  
     7     3    13 ar  
     8     3    17 ar  
     9     3    18 1   
    10     4    13 ar  
    11     4    14 ar  
    12     4    21 1   
    13     5     6 ar  
    14     5    12 ar  
    15     5    19 1   
    16     6     7 1   
    17     6    10 ar  
    18     7     8 2   
    19     7    22 1   
    20     8     9 1   
    21     8    19 1   
    22     9    15 2   
    23     9    16 1   
    24    10    23 1   
    25    11    12 ar  
    26    11    24 1   
    27    13    25 1   
    28    14    26 1   
    29    15    27 1   
    30    16    28 1   
    31    16    29 1   
    32    18    30 1   
    33    18    31 1   
@<TRIPOS>SUBSTRUCTURE
     1 K6B         1 TEMP              0 ****  ****    0 ROOT
