@<TRIPOS>MOLECULE
K6B
   31    33     1     0     0
SMALL
bcc


@<TRIPOS>ATOM
      1 C10        -19.1870    22.0680     4.6580 ca         1 K6B      -0.145000
      2 C13        -19.8560    22.3500     8.3850 cp         1 K6B       0.527800
      3 C15        -20.3330    21.8370    10.5860 ca         1 K6B       0.683200
      4 C17        -19.9410    24.1100     9.9860 ca         1 K6B      -0.050000
      5 C02        -19.7580    20.4040     6.7990 ca         1 K6B       0.000900
      6 C03        -19.5590    19.8650     5.5130 ca         1 K6B      -0.094800
      7 C04        -19.6890    18.4410     5.4900 cc         1 K6B      -0.091200
      8 C05        -19.9840    17.9310     6.7080 cd         1 K6B      -0.220000
      9 C06        -20.2230    16.5160     7.0600 cf         1 K6B       0.692500
     10 C09        -19.2730    20.7100     4.4370 ca         1 K6B      -0.073000
     11 C11        -19.3790    22.5920     5.9370 ca         1 K6B      -0.094000
     12 C12        -19.6630    21.7880     7.0340 cp         1 K6B      -0.122500
     13 C16        -20.2360    23.1870    10.9640 ca         1 K6B      -0.313300
     14 C18        -19.7450    23.7060     8.6690 ca         1 K6B      -0.288300
     15 N07        -20.9900    16.1210     8.0040 n2         1 K6B      -0.850100
     16 N08        -19.5880    15.6210     6.2540 nv         1 K6B      -0.918800
     17 N14        -20.1410    21.4550     9.3280 nb         1 K6B      -0.774000
     18 N19        -20.6700    20.8710    11.4840 nv         1 K6B      -0.947500
     19 S01        -20.1020    19.1490     7.9490 ss         1 K6B       0.044500
     20 H101       -18.9680    22.7390     3.8390 ha         1 K6B       0.135000
     21 H171       -19.8590    25.1580    10.2440 ha         1 K6B       0.134000
     22 H041       -19.5880    17.8520     4.5890 ha         1 K6B       0.156000
     23 H091       -19.1210    20.2980     3.4480 ha         1 K6B       0.136000
     24 H111       -19.3040    23.6640     6.0610 ha         1 K6B       0.131000
     25 H161       -20.3930    23.4840    11.9920 ha         1 K6B       0.141000
     26 H181       -19.5130    24.4380     7.9100 ha         1 K6B       0.143000
     27 H071       -21.4740    16.8970     8.4390 hn         1 K6B       0.391400
     28 H081       -19.6370    14.6560     6.5390 hn         1 K6B       0.413300
     29 H1         -18.7090    15.8880     5.8420 hn         1 K6B       0.413300
     30 H192       -20.4790    19.9190    11.2200 hn         1 K6B       0.419800
     31 H191       -20.5400    21.0690    12.4610 hn         1 K6B       0.419800
@<TRIPOS>BOND
     1     1    10 ar  
     2     1    11 ar  
     3     1    20 1   
     4     2    12 1   
     5     2    14 ar  
     6     2    17 ar  
     7     3    13 ar  
     8     3    17 ar  
     9     3    18 1   
    10     4    13 ar  
    11     4    14 ar  
    12     4    21 1   
    13     5     6 ar  
    14     5    12 ar  
    15     5    19 1   
    16     6     7 1   
    17     6    10 ar  
    18     7     8 2   
    19     7    22 1   
    20     8     9 1   
    21     8    19 1   
    22     9    15 2   
    23     9    16 1   
    24    10    23 1   
    25    11    12 ar  
    26    11    24 1   
    27    13    25 1   
    28    14    26 1   
    29    15    27 1   
    30    16    28 1   
    31    16    29 1   
    32    18    30 1   
    33    18    31 1   
@<TRIPOS>SUBSTRUCTURE
     1 K6B         1 TEMP              0 ****  ****    0 ROOT
