@<TRIPOS>MOLECULE
K6C
   61    64     1     0     0
SMALL
No Charge or Current Charge


@<TRIPOS>ATOM
      1 C10         -5.3300    22.4810     1.2200 ca         1 K6C      -0.098000
      2 C13         -0.8820    25.0540    -2.9370 ca         1 K6C      -0.052000
      3 C15         -2.6820    26.6610    -2.8670 ca         1 K6C       0.343900
      4 C17         -0.7070    27.1090    -4.3510 cc         1 K6C       0.263500
      5 C21         -0.9620    29.9520    -7.6820 c3         1 K6C      -0.052100
      6 C22         -0.8810    31.2660    -8.4470 ca         1 K6C      -0.075300
      7 C24          0.2010    32.6810   -10.1130 ca         1 K6C      -0.071000
      8 C26         -1.7150    33.5190    -8.8770 ca         1 K6C      -0.071000
      9 O02         -7.2720    22.9640    -0.0760 os         1 K6C      -0.343100
     10 C03         -5.9100    23.1070     0.1070 ca         1 K6C       0.098100
     11 C04         -5.0960    23.8500    -0.7760 ca         1 K6C      -0.126000
     12 C05         -3.6950    23.9730    -0.5630 cp         1 K6C      -0.143500
     13 C06         -3.1370    23.3390     0.5810 ca         1 K6C       0.123100
     14 O07         -1.7850    23.5120     0.8090 os         1 K6C      -0.341100
     15 C08         -1.1120    22.9380     1.9430 c3         1 K6C       0.148900
     16 C09         -3.9520    22.5960     1.4630 ca         1 K6C      -0.168000
     17 C11         -2.8540    24.7600    -1.5260 cp         1 K6C       0.416500
     18 C12         -1.6100    24.2910    -2.0100 ca         1 K6C      -0.134000
     19 C14         -1.4230    26.2800    -3.3750 ca         1 K6C      -0.159500
     20 N16         -3.3810    25.9220    -1.9770 nb         1 K6C      -0.676000
     21 C18         -1.1380    28.3380    -4.7400 cd         1 K6C      -0.202000
     22 N19         -0.1680    28.7240    -5.6380 na         1 K6C       0.123800
     23 C23          0.1200    31.4650    -9.4130 ca         1 K6C      -0.112500
     24 C25         -0.7280    33.7170    -9.8700 ca         1 K6C      -0.138600
     25 C27         -1.7920    32.3020    -8.1780 ca         1 K6C      -0.112500
     26 O29          0.5040    35.4360   -10.9680 o          1 K6C      -0.591100
     27 N30         -1.7600    35.8010   -10.8690 n          1 K6C      -0.407800
     28 C31         -1.6160    37.1750   -11.3960 c3         1 K6C       0.087300
     29 C32         -3.0730    35.1560   -11.1070 c3         1 K6C       0.087300
     30 N33          0.7940    27.7490    -5.7640 nd         1 K6C      -0.196800
     31 N34          0.4580    26.7630    -4.9700 nc         1 K6C      -0.354000
     32 H1          -5.9550    21.9090     1.9010 ha         1 K6C       0.126000
     33 H2           0.0760    24.6940    -3.3050 ha         1 K6C       0.139000
     34 H3          -3.1640    27.5850    -3.1810 h4         1 K6C       0.010100
     35 H4           0.9420    30.1780    -6.6660 h1         1 K6C       0.078200
     36 H5          -0.4450    30.7960    -5.7520 h1         1 K6C       0.078200
     37 H6          -2.0030    29.7340    -7.4140 hc         1 K6C       0.063700
     38 H7          -0.6290    29.1230    -8.3190 hc         1 K6C       0.063700
     39 H8           0.9850    32.8150   -10.8570 ha         1 K6C       0.127000
     40 H9          -2.4110    34.3140    -8.6210 ha         1 K6C       0.127000
     41 H10         -9.0370    23.3280    -1.1340 h1         1 K6C       0.040033
     42 H11         -7.8620    24.6590    -1.1610 h1         1 K6C       0.040033
     43 H12         -7.5790    23.1930    -2.1390 h1         1 K6C       0.040033
     44 H13         -5.5310    24.3340    -1.6450 ha         1 K6C       0.132000
     45 H14         -0.0470    23.2000     1.9250 h1         1 K6C       0.040033
     46 H15         -1.5390    23.3140     2.8820 h1         1 K6C       0.040033
     47 H16         -1.1920    21.8430     1.9320 h1         1 K6C       0.040033
     48 H17         -3.5390    22.1080     2.3410 ha         1 K6C       0.119000
     49 H18         -1.2210    23.3350    -1.6740 ha         1 K6C       0.134000
     50 H19         -1.9960    28.9410    -4.4740 h4         1 K6C       0.168000
     51 H20          0.8410    30.6780    -9.6230 ha         1 K6C       0.117500
     52 H21         -2.5590    32.1710    -7.4170 ha         1 K6C       0.117500
     53 H22         -0.8760    37.7280   -10.8040 h1         1 K6C       0.042367
     54 H23         -1.2880    37.1390   -12.4430 h1         1 K6C       0.042367
     55 H24         -2.5760    37.7050   -11.3390 h1         1 K6C       0.042367
     56 H25         -2.9510    34.0800   -11.2900 h1         1 K6C       0.042367
     57 H26         -3.7250    35.3070   -10.2380 h1         1 K6C       0.042367
     58 H27         -3.5540    35.5990   -11.9890 h1         1 K6C       0.042367
     59 C20         -0.1040    29.9800    -6.4010 c3         1 K6C       0.077600
     60 C01         -7.9680    23.5670    -1.1820 c3         1 K6C       0.148900
     61 C28         -0.6000    35.0220   -10.6320 c          1 K6C       0.612700
@<TRIPOS>BOND
     1     1    10 ar  
     2     1    16 ar  
     3     1    32 1   
     4     2    18 ar  
     5     2    19 ar  
     6     2    33 1   
     7     3    19 ar  
     8     3    20 ar  
     9     3    34 1   
    10     4    19 1   
    11     4    21 2   
    12     4    31 1   
    13     5     6 1   
    14     5    37 1   
    15     5    38 1   
    16     5    59 1   
    17     6    23 ar  
    18     6    25 ar  
    19     7    23 ar  
    20     7    24 ar  
    21     7    39 1   
    22     8    24 ar  
    23     8    25 ar  
    24     8    40 1   
    25     9    10 1   
    26     9    60 1   
    27    10    11 ar  
    28    11    12 ar  
    29    11    44 1   
    30    12    13 ar  
    31    12    17 1   
    32    13    14 1   
    33    13    16 ar  
    34    14    15 1   
    35    15    45 1   
    36    15    46 1   
    37    15    47 1   
    38    16    48 1   
    39    17    18 ar  
    40    17    20 ar  
    41    18    49 1   
    42    21    22 1   
    43    21    50 1   
    44    22    30 1   
    45    22    59 1   
    46    23    51 1   
    47    24    61 1   
    48    25    52 1   
    49    26    61 2   
    50    27    28 1   
    51    27    29 1   
    52    27    61 1   
    53    28    53 1   
    54    28    54 1   
    55    28    55 1   
    56    29    56 1   
    57    29    57 1   
    58    29    58 1   
    59    30    31 2   
    60    35    59 1   
    61    36    59 1   
    62    41    60 1   
    63    42    60 1   
    64    43    60 1   
@<TRIPOS>SUBSTRUCTURE
     1 K6C         1 TEMP              0 ****  ****    0 ROOT
