@<TRIPOS>MOLECULE
K6C
   61    64     1     0     0
SMALL
abcg2


@<TRIPOS>ATOM
      1 C10         -5.2260    22.3600     1.0890 ca         1 K6C      -0.098000
      2 C13         -0.9690    25.1780    -2.9170 ca         1 K6C      -0.052000
      3 C15         -2.7760    26.7040    -2.7380 ca         1 K6C       0.343900
      4 C17         -0.8940    27.2760    -4.2590 cc         1 K6C       0.263500
      5 C21         -1.2000    30.1090    -7.4690 c3         1 K6C      -0.052100
      6 C22         -1.0560    31.3520    -8.3000 ca         1 K6C      -0.075300
      7 C24         -0.0650    32.5230   -10.1660 ca         1 K6C      -0.071000
      8 C26         -1.5980    33.6690    -8.7200 ca         1 K6C      -0.071000
      9 O02         -7.1310    22.8040    -0.1840 os         1 K6C      -0.343100
     10 C03         -5.8090    23.0060     0.0030 ca         1 K6C       0.098100
     11 C04         -5.0110    23.7990    -0.8110 ca         1 K6C      -0.126000
     12 C05         -3.6450    23.9420    -0.5670 cp         1 K6C      -0.143500
     13 C06         -3.0710    23.3030     0.5390 ca         1 K6C       0.123100
     14 O07         -1.7590    23.5200     0.7650 os         1 K6C      -0.341100
     15 C08         -1.1490    22.8970     1.8750 c3         1 K6C       0.148900
     16 C09         -3.8760    22.5120     1.3570 ca         1 K6C      -0.168000
     17 C11         -2.8540    24.7830    -1.4930 cp         1 K6C       0.416500
     18 C12         -1.6250    24.3710    -2.0090 ca         1 K6C      -0.134000
     19 C14         -1.5400    26.3910    -3.2990 ca         1 K6C      -0.159500
     20 N16         -3.4100    25.9340    -1.8710 nb         1 K6C      -0.676000
     21 C18         -1.2080    28.5650    -4.6220 cd         1 K6C      -0.202000
     22 N19         -0.2850    28.8820    -5.5420 na         1 K6C       0.123800
     23 C23         -0.2200    31.3700    -9.4130 ca         1 K6C      -0.112500
     24 C25         -0.7700    33.6780    -9.8390 ca         1 K6C      -0.138600
     25 C27         -1.7320    32.5200    -7.9560 ca         1 K6C      -0.112500
     26 O29          0.6280    35.2610   -10.8760 o          1 K6C      -0.591100
     27 N30         -1.5910    35.6510   -11.0170 n          1 K6C      -0.407800
     28 C31         -1.3710    36.9340   -11.6550 c3         1 K6C       0.087300
     29 C32         -2.9490    35.1510   -11.1040 c3         1 K6C       0.087300
     30 N33          0.5410    27.8710    -5.7500 nd         1 K6C      -0.196800
     31 N34          0.1880    26.9040    -4.9810 nc         1 K6C      -0.354000
     32 H1          -5.8330    21.7380     1.7340 ha         1 K6C       0.126000
     33 H2          -0.0190    24.8660    -3.3300 ha         1 K6C       0.139000
     34 H3          -3.2820    27.6250    -3.0110 h4         1 K6C       0.010100
     35 H4           0.8350    30.1450    -6.7110 h1         1 K6C       0.078200
     36 H5          -0.3340    30.9470    -5.6640 h1         1 K6C       0.078200
     37 H6          -2.2080    30.0520    -7.0530 hc         1 K6C       0.063700
     38 H7          -1.0510    29.2230    -8.0880 hc         1 K6C       0.063700
     39 H8           0.5940    32.5170   -11.0250 ha         1 K6C       0.127000
     40 H9          -2.1380    34.5630    -8.4320 ha         1 K6C       0.127000
     41 H10         -8.8060    23.1530    -1.2450 h1         1 K6C       0.040033
     42 H11         -7.6860    24.5260    -1.2210 h1         1 K6C       0.040033
     43 H12         -7.3380    23.1110    -2.2360 h1         1 K6C       0.040033
     44 H13         -5.4250    24.3180    -1.6650 ha         1 K6C       0.132000
     45 H14         -0.1040    23.1970     1.8600 h1         1 K6C       0.040033
     46 H15         -1.5930    23.2190     2.8210 h1         1 K6C       0.040033
     47 H16         -1.2020    21.8060     1.8160 h1         1 K6C       0.040033
     48 H17         -3.4670    22.0050     2.2200 ha         1 K6C       0.119000
     49 H18         -1.1940    23.4220    -1.7230 ha         1 K6C       0.134000
     50 H19         -1.9740    29.2530    -4.3050 h4         1 K6C       0.168000
     51 H20          0.3160    30.4720    -9.6960 ha         1 K6C       0.117500
     52 H21         -2.3770    32.5290    -7.0850 ha         1 K6C       0.117500
     53 H22         -0.4980    37.4300   -11.2400 h1         1 K6C       0.042367
     54 H23         -1.2350    36.8320   -12.7340 h1         1 K6C       0.042367
     55 H24         -2.2400    37.5660   -11.4800 h1         1 K6C       0.042367
     56 H25         -3.0000    34.0920   -10.8780 h1         1 K6C       0.042367
     57 H26         -3.6140    35.6860   -10.4250 h1         1 K6C       0.042367
     58 H27         -3.3200    35.2910   -12.1210 h1         1 K6C       0.042367
     59 C20         -0.1830    30.0960    -6.3280 c3         1 K6C       0.077600
     60 C01         -7.7570    23.4360    -1.2800 c3         1 K6C       0.148900
     61 C28         -0.5240    34.9220   -10.6310 c          1 K6C       0.612700
@<TRIPOS>BOND
     1     1    10 ar  
     2     1    16 ar  
     3     1    32 1   
     4     2    18 ar  
     5     2    19 ar  
     6     2    33 1   
     7     3    19 ar  
     8     3    20 ar  
     9     3    34 1   
    10     4    19 1   
    11     4    21 2   
    12     4    31 1   
    13     5     6 1   
    14     5    37 1   
    15     5    38 1   
    16     5    59 1   
    17     6    23 ar  
    18     6    25 ar  
    19     7    23 ar  
    20     7    24 ar  
    21     7    39 1   
    22     8    24 ar  
    23     8    25 ar  
    24     8    40 1   
    25     9    10 1   
    26     9    60 1   
    27    10    11 ar  
    28    11    12 ar  
    29    11    44 1   
    30    12    13 ar  
    31    12    17 1   
    32    13    14 1   
    33    13    16 ar  
    34    14    15 1   
    35    15    45 1   
    36    15    46 1   
    37    15    47 1   
    38    16    48 1   
    39    17    18 ar  
    40    17    20 ar  
    41    18    49 1   
    42    21    22 1   
    43    21    50 1   
    44    22    30 1   
    45    22    59 1   
    46    23    51 1   
    47    24    61 1   
    48    25    52 1   
    49    26    61 2   
    50    27    28 1   
    51    27    29 1   
    52    27    61 1   
    53    28    53 1   
    54    28    54 1   
    55    28    55 1   
    56    29    56 1   
    57    29    57 1   
    58    29    58 1   
    59    30    31 2   
    60    35    59 1   
    61    36    59 1   
    62    41    60 1   
    63    42    60 1   
    64    43    60 1   
@<TRIPOS>SUBSTRUCTURE
     1 K6C         1 TEMP              0 ****  ****    0 ROOT
