@<TRIPOS>MOLECULE
K6F
   22    23     1     0     0
SMALL
No Charge or Current Charge


@<TRIPOS>ATOM
      1 C1          90.3930    -9.1260    15.4650 ca         1 K6F       0.232000
      2 C2          90.8560    -7.9240    16.1010 ca         1 K6F       0.225000
      3 N3          91.0710    -9.6870    14.4270 nb         1 K6F      -0.635000
      4 C4          89.2130    -9.7360    15.9260 ca         1 K6F      -0.069000
      5 N5          91.9900    -7.2940    15.6940 nb         1 K6F      -0.635000
      6 C6          90.1140    -7.3880    17.1710 ca         1 K6F      -0.065000
      7 C7          92.2040    -9.0540    14.0250 ca         1 K6F       0.327300
      8 C8          88.4890    -9.1840    16.9930 ca         1 K6F       0.122000
      9 C9          92.6630    -7.8590    14.6580 ca         1 K6F       0.325300
     10 C10         88.9360    -8.0120    17.6170 ca         1 K6F      -0.099000
     11 C11         92.9470    -9.6990    12.8620 c3         1 K6F      -0.147400
     12 Cl12        87.0150    -9.9660    17.5520 cl         1 K6F      -0.192000
     13 C13         93.9310    -7.1390    14.2180 c3         1 K6F      -0.147400
     14 H14         88.8570   -10.6440    15.4500 ha         1 K6F       0.148000
     15 H15         90.4570    -6.4780    17.6570 ha         1 K6F       0.137000
     16 H16         88.3730    -7.5870    18.4440 ha         1 K6F       0.134000
     17 H17         92.4440   -10.6070    12.5080 hc         1 K6F       0.056700
     18 H19         93.0170    -9.0090    12.0130 hc         1 K6F       0.056700
     19 H18         93.9650    -9.9790    13.1570 hc         1 K6F       0.056700
     20 H21         94.1220    -6.2420    14.8200 hc         1 K6F       0.056367
     21 H20         94.8050    -7.7930    14.3140 hc         1 K6F       0.056367
     22 H22         93.8570    -6.8240    13.1710 hc         1 K6F       0.056367
@<TRIPOS>BOND
     1     1     2 ar  
     2     1     3 ar  
     3     1     4 ar  
     4     2     5 ar  
     5     2     6 ar  
     6     3     7 ar  
     7     4     8 ar  
     8     4    14 1   
     9     5     9 ar  
    10     6    10 ar  
    11     6    15 1   
    12     7     9 ar  
    13     7    11 1   
    14     8    10 ar  
    15     8    12 1   
    16     9    13 1   
    17    10    16 1   
    18    11    17 1   
    19    11    18 1   
    20    11    19 1   
    21    13    20 1   
    22    13    21 1   
    23    13    22 1   
@<TRIPOS>SUBSTRUCTURE
     1 K6F         1 TEMP              0 ****  ****    0 ROOT
