@<TRIPOS>MOLECULE
K6F
   22    23     1     0     0
SMALL
bcc


@<TRIPOS>ATOM
      1 C1          90.3960    -9.1130    15.4670 ca         1 K6F       0.297300
      2 C2          90.8500    -7.9350    16.0920 ca         1 K6F       0.290300
      3 N3          91.0840    -9.6570    14.4340 nb         1 K6F      -0.635000
      4 C4          89.2160    -9.7390    15.9160 ca         1 K6F      -0.152300
      5 N5          91.9850    -7.3240    15.6730 nb         1 K6F      -0.635000
      6 C6          90.1150    -7.3930    17.1640 ca         1 K6F      -0.148300
      7 C7          92.1730    -9.0610    14.0420 ca         1 K6F       0.327300
      8 C8          88.5300    -9.1830    16.9610 ca         1 K6F       0.030400
      9 C9          92.6380    -7.8570    14.6810 ca         1 K6F       0.325300
     10 C10         88.9690    -8.0050    17.5950 ca         1 K6F      -0.117000
     11 C11         92.9430    -9.6490    12.9050 c3         1 K6F      -0.147400
     12 CL12        87.0810    -9.9360    17.5330 cl         1 K6F      -0.100400
     13 C13         93.8910    -7.1930    14.2110 c3         1 K6F      -0.147400
     14 H14         88.8810   -10.6440    15.4270 ha         1 K6F       0.166000
     15 H15         90.4690    -6.4870    17.6400 ha         1 K6F       0.155000
     16 H16         88.4000    -7.5930    18.4170 ha         1 K6F       0.152000
     17 H17         92.4650   -10.5610    12.5550 hc         1 K6F       0.056700
     18 H19         93.0120    -8.9480    12.0710 hc         1 K6F       0.056700
     19 H18         93.9670    -9.8840    13.2030 hc         1 K6F       0.056700
     20 H21         94.0910    -6.3010    14.8010 hc         1 K6F       0.056367
     21 H20         94.7480    -7.8640    14.2940 hc         1 K6F       0.056367
     22 H22         93.8160    -6.9050    13.1600 hc         1 K6F       0.056367
@<TRIPOS>BOND
     1     1     2 ar  
     2     1     3 ar  
     3     1     4 ar  
     4     2     5 ar  
     5     2     6 ar  
     6     3     7 ar  
     7     4     8 ar  
     8     4    14 1   
     9     5     9 ar  
    10     6    10 ar  
    11     6    15 1   
    12     7     9 ar  
    13     7    11 1   
    14     8    10 ar  
    15     8    12 1   
    16     9    13 1   
    17    10    16 1   
    18    11    17 1   
    19    11    18 1   
    20    11    19 1   
    21    13    20 1   
    22    13    21 1   
    23    13    22 1   
@<TRIPOS>SUBSTRUCTURE
     1 K6F         1 TEMP              0 ****  ****    0 ROOT
