@<TRIPOS>MOLECULE
K6H
   15    15     1     0     0
SMALL
bcc


@<TRIPOS>ATOM
      1 OAB         -2.9470    -0.9920    -1.0400 o          1 K6H      -0.600500
      2 CAI         -2.2210    -0.4960    -0.2190 c          1 K6H       0.722800
      3 OAG         -0.9780    -0.9600    -0.0030 os         1 K6H      -0.341900
      4 CAE         -2.4480     0.6480     0.6750 ce         1 K6H      -0.278200
      5 CAF         -1.3410     0.8340     1.3830 c2         1 K6H      -0.149200
      6 CAK         -0.3190    -0.1780     0.9820 c5         1 K6H       0.167300
      7 CAJ          0.9650     0.4350     0.4590 c3         1 K6H      -0.067300
      8 CLAD         0.5970     1.3870    -1.0310 cl         1 K6H      -0.252400
      9 CAH          2.1070    -0.5620     0.1020 c          1 K6H       0.947600
     10 OAA          1.8290    -1.7680     0.1600 o          1 K6H      -0.800300
     11 OAC          3.2200    -0.0330    -0.0340 o          1 K6H      -0.800300
     12 HAE         -3.3680     1.2120     0.6980 ha         1 K6H       0.152000
     13 HAK         -0.0530    -0.8140     1.8330 h1         1 K6H       0.097700
     14 HAF         -1.1660     1.5820     2.1420 ha         1 K6H       0.145000
     15 HAJ          1.3320     1.1470     1.1960 h1         1 K6H       0.058700
@<TRIPOS>BOND
     1     1     2 2   
     2     2     3 1   
     3     2     4 1   
     4     3     6 1   
     5     4     5 2   
     6     4    12 1   
     7     5     6 1   
     8     5    14 1   
     9     6     7 1   
    10     6    13 1   
    11     7     8 1   
    12     7     9 1   
    13     7    15 1   
    14     9    10 1   
    15     9    11 1   
@<TRIPOS>SUBSTRUCTURE
     1 K6H         1 TEMP              0 ****  ****    0 ROOT
