@<TRIPOS>MOLECULE
K6H
   15    15     1     0     0
SMALL
No Charge or Current Charge


@<TRIPOS>ATOM
      1 OAB         -3.1160    -0.8920    -1.0320 o          1 K6H      -0.525000
      2 CAI         -2.2770    -0.4690    -0.2520 c          1 K6H       0.647300
      3 OAG         -1.0200    -0.9760    -0.0740 os         1 K6H      -0.365100
      4 CAE         -2.4370     0.6240     0.7030 ce         1 K6H      -0.328200
      5 CAF         -1.3320     0.8220     1.4300 c2         1 K6H      -0.199200
      6 CAK         -0.3110    -0.2070     0.9520 c5         1 K6H       0.190500
      7 CAJ          0.9710     0.4450     0.3630 c3         1 K6H       0.009300
      8 ClAD         0.6140     1.3770    -1.1870 cl         1 K6H      -0.329000
      9 CAH          2.1610    -0.5430     0.2100 c          1 K6H       0.737000
     10 OAA          1.9580    -1.7500     0.2440 o          1 K6H      -0.695000
     11 OAC          3.2840    -0.0630     0.1070 o          1 K6H      -0.695000
     12 HAE         -3.3710     1.1800     0.7720 ha         1 K6H       0.202000
     13 HAK         -0.0290    -0.8820     1.7730 h1         1 K6H       0.097700
     14 HAF         -1.1900     1.5750     2.2100 ha         1 K6H       0.195000
     15 HAJ          1.3070     1.2010     1.0840 h1         1 K6H       0.058700
@<TRIPOS>BOND
     1     1     2 2   
     2     2     3 1   
     3     2     4 1   
     4     3     6 1   
     5     4     5 2   
     6     4    12 1   
     7     5     6 1   
     8     5    14 1   
     9     6     7 1   
    10     6    13 1   
    11     7     8 1   
    12     7     9 1   
    13     7    15 1   
    14     9    10 1   
    15     9    11 1   
@<TRIPOS>SUBSTRUCTURE
     1 K6H         1 TEMP              0 ****  ****    0 ROOT
