@<TRIPOS>MOLECULE
K6I
   48    50     1     0     0
SMALL
abcg2


@<TRIPOS>ATOM
      1 C18        -19.1420    12.0750    19.2250 c3         1 K6I      -0.090600
      2 C17        -19.7610    12.9590    16.9680 c3         1 K6I      -0.090600
      3 C16        -20.1990    12.0660    18.1260 c3         1 K6I      -0.056700
      4 C15        -21.5650    12.5280    18.6350 c3         1 K6I      -0.094400
      5 C14        -22.2600    11.6160    19.6410 c3         1 K6I       0.086000
      6 C1         -23.6290     8.0980    17.8110 ca         1 K6I       0.298000
      7 N1         -24.3390     9.2510    17.7290 nc         1 K6I      -0.736700
      8 C6         -26.2060    11.1820    17.2520 c3         1 K6I      -0.056400
      9 C5         -23.4020     5.9250    17.2510 ca         1 K6I       0.070900
     10 C12        -25.1000     8.2140    12.3260 ca         1 K6I      -0.116000
     11 N4         -26.5930     9.7820    15.3380 ns         1 K6I      -0.143000
     12 C3         -21.9510     9.2030    19.2540 c          1 K6I       0.477500
     13 C8         -26.4330     9.2530    14.0460 ca         1 K6I      -0.075000
     14 C9         -27.5110     9.2270    13.1700 ca         1 K6I       0.146000
     15 C11        -26.1940     8.2000    11.4720 ca         1 K6I      -0.092000
     16 O1         -24.8850    11.2720    15.2510 o          1 K6I      -0.571100
     17 C7         -25.8000    10.7510    15.8520 c          1 K6I       0.635100
     18 C13        -25.2210     8.7290    13.6080 ca         1 K6I      -0.070000
     19 C10        -27.4160     8.7030    11.8970 ca         1 K6I      -0.143000
     20 F          -28.6850     9.7210    13.5880 f          1 K6I      -0.182000
     21 C          -23.8830    10.2940    18.3280 cd         1 K6I       0.542800
     22 N3         -24.0990     7.0330    17.1500 nb         1 K6I      -0.105000
     23 C4         -22.2240     5.8430    18.0110 ca         1 K6I       0.256900
     24 N2         -21.7550     6.8850    18.6580 nb         1 K6I      -0.560000
     25 C2         -22.4530     8.0130    18.5590 ca         1 K6I       0.175500
     26 O          -20.9560     9.2100    19.9410 o          1 K6I      -0.481000
     27 N          -22.7240    10.3490    19.0530 n          1 K6I      -0.325300
     28 H1         -19.4010    11.4210    20.0570 hc         1 K6I       0.035533
     29 H2         -18.1780    11.7420    18.8380 hc         1 K6I       0.035533
     30 H3         -19.0080    13.0840    19.6210 hc         1 K6I       0.035533
     31 H4         -18.7970    12.6430    16.5670 hc         1 K6I       0.035533
     32 H5         -20.4840    12.9400    16.1510 hc         1 K6I       0.035533
     33 H6         -19.6580    13.9970    17.2950 hc         1 K6I       0.035533
     34 H7         -20.2930    11.0450    17.7390 hc         1 K6I       0.051700
     35 H8         -21.4540    13.5050    19.1180 hc         1 K6I       0.056200
     36 H9         -22.2300    12.6920    17.7830 hc         1 K6I       0.056200
     37 H10        -21.6050    11.3640    20.4710 h1         1 K6I       0.072700
     38 H11        -23.1210    12.1190    20.0820 h1         1 K6I       0.072700
     39 H12        -26.8710    12.0480    17.1740 h1         1 K6I       0.098200
     40 H13        -26.7410    10.4030    17.7930 h1         1 K6I       0.098200
     41 H14        -23.7680     5.0540    16.7200 h4         1 K6I       0.034100
     42 H16        -27.3590     9.4350    15.8970 hn         1 K6I       0.166000
     43 H17        -26.1040     7.7940    10.4730 ha         1 K6I       0.118000
     44 H18        -24.3750     8.7130    14.2810 ha         1 K6I       0.139000
     45 H19        -28.2820     8.6990    11.2490 ha         1 K6I       0.131000
     46 H20        -21.6750     4.9120    18.0750 h4         1 K6I       0.038100
     47 S          -24.8200    11.7750    18.2250 ss         1 K6I      -0.165200
     48 H15        -24.1500     7.8130    11.9990 ha         1 K6I       0.120000
@<TRIPOS>BOND
     1     1     3 1   
     2     1    28 1   
     3     1    29 1   
     4     1    30 1   
     5     2     3 1   
     6     2    31 1   
     7     2    32 1   
     8     2    33 1   
     9     3     4 1   
    10     3    34 1   
    11     4     5 1   
    12     4    35 1   
    13     4    36 1   
    14     5    27 1   
    15     5    37 1   
    16     5    38 1   
    17     6     7 1   
    18     6    22 ar  
    19     6    25 ar  
    20     7    21 2   
    21     8    17 1   
    22     8    39 1   
    23     8    40 1   
    24     8    47 1   
    25     9    22 ar  
    26     9    23 ar  
    27     9    41 1   
    28    10    15 ar  
    29    10    18 ar  
    30    10    48 1   
    31    11    13 1   
    32    11    17 1   
    33    11    42 1   
    34    12    25 1   
    35    12    26 2   
    36    12    27 1   
    37    13    14 ar  
    38    13    18 ar  
    39    14    19 ar  
    40    14    20 1   
    41    15    19 ar  
    42    15    43 1   
    43    16    17 2   
    44    18    44 1   
    45    19    45 1   
    46    21    27 1   
    47    21    47 1   
    48    23    24 ar  
    49    23    46 1   
    50    24    25 ar  
@<TRIPOS>SUBSTRUCTURE
     1 K6I         1 TEMP              0 ****  ****    0 ROOT
