@<TRIPOS>MOLECULE
K6I
   48    50     1     0     0
SMALL
No Charge or Current Charge


@<TRIPOS>ATOM
      1 C18        -19.8200    10.7580    17.1600 c3         1 K6I      -0.090600
      2 C17        -21.3490    11.8720    15.4670 c3         1 K6I      -0.090600
      3 C16        -21.2850    11.1130    16.8110 c3         1 K6I      -0.056700
      4 C15        -21.9890    11.9170    17.9400 c3         1 K6I      -0.094400
      5 C14        -22.2500    11.1430    19.2630 c3         1 K6I       0.086000
      6 C1         -24.8940     7.8280    18.6230 ca         1 K6I       0.298000
      7 N1         -25.4220     9.1310    18.6660 nc         1 K6I      -0.736700
      8 C6         -26.5320    11.7770    17.8000 c3         1 K6I      -0.056400
      9 C5         -25.2590     5.5470    18.3220 ca         1 K6I       0.070900
     10 C12        -23.9670    10.8710    12.4280 ca         1 K6I      -0.116000
     11 N4         -25.3590    10.6910    15.9280 ns         1 K6I      -0.143000
     12 C3         -22.5760     8.6720    19.1170 c          1 K6I       0.477500
     13 C8         -24.6600    10.3840    14.7240 ca         1 K6I      -0.075000
     14 C9         -23.8920     9.2010    14.6750 ca         1 K6I       0.146000
     15 C11        -23.1980     9.6970    12.3990 ca         1 K6I      -0.092000
     16 O1         -25.9400    12.9200    15.7660 o          1 K6I      -0.571100
     17 C7         -25.9330    11.8670    16.3930 c          1 K6I       0.635100
     18 C13        -24.6970    11.2160    13.5800 ca         1 K6I      -0.070000
     19 C10        -23.1630     8.8600    13.5250 ca         1 K6I      -0.143000
     20 F          -23.8350     8.3840    15.7490 f          1 K6I      -0.182000
     21 C          -24.5230    10.0730    18.9320 cd         1 K6I       0.542800
     22 N3         -25.7430     6.8050    18.3590 nb         1 K6I      -0.105000
     23 C4         -23.9040     5.2680    18.5540 ca         1 K6I       0.256900
     24 N2         -23.0220     6.2550    18.8200 nb         1 K6I      -0.560000
     25 C2         -23.5190     7.5310    18.8520 ca         1 K6I       0.175500
     26 O          -21.3800     8.4900    19.3260 o          1 K6I      -0.481000
     27 N          -23.1460     9.9540    19.1100 n          1 K6I      -0.325300
     28 H1         -19.7550    10.1700    18.0810 hc         1 K6I       0.035533
     29 H2         -19.3660    10.1670    16.3550 hc         1 K6I       0.035533
     30 H3         -19.2210    11.6670    17.2940 hc         1 K6I       0.035533
     31 H4         -20.9260    11.2640    14.6580 hc         1 K6I       0.035533
     32 H5         -22.3850    12.1100    15.2010 hc         1 K6I       0.035533
     33 H6         -20.7870    12.8120    15.5210 hc         1 K6I       0.035533
     34 H7         -21.8310    10.1720    16.6710 hc         1 K6I       0.051700
     35 H8         -21.3870    12.8040    18.1710 hc         1 K6I       0.056200
     36 H9         -22.9420    12.2970    17.5560 hc         1 K6I       0.056200
     37 H10        -21.2850    10.8450    19.6920 h1         1 K6I       0.072700
     38 H11        -22.6840    11.8310    20.0000 h1         1 K6I       0.072700
     39 H12        -27.1430    12.6720    17.9620 h1         1 K6I       0.098200
     40 H13        -27.1810    10.8950    17.8620 h1         1 K6I       0.098200
     41 H14        -25.9700     4.7520    18.1070 h4         1 K6I       0.034100
     42 H16        -25.4210     9.9140    16.5760 hn         1 K6I       0.166000
     43 H17        -22.6340     9.4360    11.5050 ha         1 K6I       0.118000
     44 H18        -25.2880    12.1260    13.5610 ha         1 K6I       0.139000
     45 H19        -22.5710     7.9480    13.5100 ha         1 K6I       0.131000
     46 H20        -23.5210     4.2490    18.5250 h4         1 K6I       0.038100
     47 S          -25.2030    11.7060    19.1000 ss         1 K6I      -0.165200
     48 H15        -24.0000    11.5180    11.5540 ha         1 K6I       0.120000
@<TRIPOS>BOND
     1     1     3 1   
     2     1    28 1   
     3     1    29 1   
     4     1    30 1   
     5     2     3 1   
     6     2    31 1   
     7     2    32 1   
     8     2    33 1   
     9     3     4 1   
    10     3    34 1   
    11     4     5 1   
    12     4    35 1   
    13     4    36 1   
    14     5    27 1   
    15     5    37 1   
    16     5    38 1   
    17     6     7 1   
    18     6    22 ar  
    19     6    25 ar  
    20     7    21 2   
    21     8    17 1   
    22     8    39 1   
    23     8    40 1   
    24     8    47 1   
    25     9    22 ar  
    26     9    23 ar  
    27     9    41 1   
    28    10    15 ar  
    29    10    18 ar  
    30    10    48 1   
    31    11    13 1   
    32    11    17 1   
    33    11    42 1   
    34    12    25 1   
    35    12    26 2   
    36    12    27 1   
    37    13    14 ar  
    38    13    18 ar  
    39    14    19 ar  
    40    14    20 1   
    41    15    19 ar  
    42    15    43 1   
    43    16    17 2   
    44    18    44 1   
    45    19    45 1   
    46    21    27 1   
    47    21    47 1   
    48    23    24 ar  
    49    23    46 1   
    50    24    25 ar  
@<TRIPOS>SUBSTRUCTURE
     1 K6I         1 TEMP              0 ****  ****    0 ROOT
