@<TRIPOS>MOLECULE
K6K
   69    74     1     0     0
SMALL
No Charge or Current Charge


@<TRIPOS>ATOM
      1 C25          7.4280     4.0140     0.6790 c3         1 K6K       0.162900
      2 O2           6.8750     2.6860     0.6820 os         1 K6K      -0.391600
      3 C24          7.5380     1.6630     0.0440 cc         1 K6K       0.571100
      4 N7           8.6900     1.8120    -0.5980 nd         1 K6K      -0.449700
      5 N6           9.0350     0.5580    -1.1050 nd         1 K6K      -0.054000
      6 N8           7.1370     0.3540    -0.0400 na         1 K6K       0.124000
      7 C23          8.0880    -0.3050    -0.7590 cc         1 K6K      -0.163000
      8 C22          7.9510    -1.6930    -1.0120 cc         1 K6K      -0.009000
      9 C21          6.8320    -2.3080    -0.5050 cd         1 K6K      -0.169000
     10 N9           5.9830    -0.1990     0.5050 nc         1 K6K      -0.539800
     11 C20          5.8810    -1.5090     0.2400 cd         1 K6K       0.566900
     12 N5           4.7300    -2.1290     0.7500 nh         1 K6K      -0.754300
     13 C17          3.9210    -3.0550    -0.0920 c6         1 K6K       0.204800
     14 C16          2.6370    -2.3460    -0.5870 c6         1 K6K      -0.103900
     15 C18          3.9830    -1.5870     1.9250 c6         1 K6K       0.204800
     16 C19          2.7010    -0.8520     1.4620 c6         1 K6K      -0.103900
     17 C15          1.8070    -1.7770     0.5950 c6         1 K6K      -0.007400
     18 C12          0.5330    -1.0650     0.1150 ca         1 K6K      -0.116300
     19 C11         -0.7330    -1.5490     0.5020 ca         1 K6K      -0.068000
     20 C10         -1.9020    -0.9030     0.0680 ca         1 K6K      -0.170500
     21 C13          0.6080     0.0750    -0.7130 ca         1 K6K      -0.068000
     22 C14         -0.5620     0.7210    -1.1470 ca         1 K6K      -0.170500
     23 C9          -1.8260     0.2310    -0.7550 ca         1 K6K       0.142100
     24 O1          -3.0080     0.8210    -1.1470 os         1 K6K      -0.335100
     25 C8          -3.0460     2.0140    -1.9570 c3         1 K6K       0.135600
     26 C7          -4.5240     2.4350    -2.1680 c3         1 K6K       0.224800
     27 N4          -5.2470     2.8090    -0.9150 nh         1 K6K      -0.783300
     28 C6          -5.2930     4.2520    -0.5820 c3         1 K6K       0.211100
     29 C5          -5.7440     1.8410    -0.0590 cc         1 K6K       0.590900
     30 C4          -5.6000     2.0830     1.3630 cc         1 K6K      -0.177000
     31 C3          -6.0630     1.1610     2.2710 cd         1 K6K      -0.006000
     32 N2          -6.3060     0.7710    -0.6310 nd         1 K6K      -0.536800
     33 N3          -6.7530    -0.1320     0.3280 na         1 K6K       0.131000
     34 C2          -6.6590     0.0160     1.6770 cd         1 K6K      -0.167000
     35 N1          -7.1900    -1.0450     2.2780 nc         1 K6K      -0.056000
     36 N           -7.6490    -1.9190     1.2750 nc         1 K6K      -0.450700
     37 C1          -7.3680    -1.3360     0.1130 cd         1 K6K       0.570100
     38 O           -7.6290    -1.8170    -1.1470 os         1 K6K      -0.389600
     39 C           -8.2740    -3.0940    -1.2830 c3         1 K6K       0.162900
     40 H251         8.4160     4.0280     1.1570 h1         1 K6K       0.053367
     41 H252         7.5310     4.3930    -0.3460 h1         1 K6K       0.053367
     42 H253         6.7730     4.7010     1.2300 h1         1 K6K       0.053367
     43 H22          8.7050    -2.2320    -1.5780 ha         1 K6K       0.149000
     44 H21          6.6780    -3.3690    -0.6510 ha         1 K6K       0.134000
     45 H171         4.4830    -3.4100    -0.9670 h1         1 K6K       0.062700
     46 H172         3.6420    -3.9450     0.4920 h1         1 K6K       0.062700
     47 H181         3.6970    -2.4130     2.5920 h1         1 K6K       0.062700
     48 H182         4.6040    -0.9060     2.5250 h1         1 K6K       0.062700
     49 H161         2.9180    -1.5400    -1.2780 hc         1 K6K       0.056200
     50 H162         2.0270    -3.0530    -1.1650 hc         1 K6K       0.056200
     51 H15          1.5100    -2.6280     1.2240 hc         1 K6K       0.048700
     52 H191         2.1400    -0.5050     2.3400 hc         1 K6K       0.056200
     53 H192         2.9850     0.0450     0.8970 hc         1 K6K       0.056200
     54 H11         -0.8140    -2.4260     1.1400 ha         1 K6K       0.112500
     55 H13          1.5760     0.4640    -1.0230 ha         1 K6K       0.112500
     56 H10         -2.8750    -1.2820     0.3710 ha         1 K6K       0.123500
     57 H14         -0.4690     1.5960    -1.7840 ha         1 K6K       0.123500
     58 H81C        -2.5070     2.8350    -1.4660 h1         1 K6K       0.038700
     59 H82C        -2.5840     1.8300    -2.9350 h1         1 K6K       0.038700
     60 H71C        -4.5290     3.2820    -2.8680 h1         1 K6K       0.077700
     61 H72C        -5.0420     1.6180    -2.6880 h1         1 K6K       0.077700
     62 H61C        -6.1550     4.4750     0.0610 h1         1 K6K       0.041367
     63 H62C        -4.3770     4.5530    -0.0570 h1         1 K6K       0.041367
     64 H63C        -5.3870     4.8610    -1.4900 h1         1 K6K       0.041367
     65 H4          -5.1090     2.9820     1.7110 ha         1 K6K       0.132000
     66 H3          -5.9730     1.2940     3.3460 ha         1 K6K       0.148000
     67 HC1         -7.6700    -3.8880    -0.8250 h1         1 K6K       0.053033
     68 HC2         -9.2610    -3.0870    -0.8020 h1         1 K6K       0.053033
     69 HC3         -8.4140    -3.3400    -2.3430 h1         1 K6K       0.053033
@<TRIPOS>BOND
     1     1     2 1   
     2     1    40 1   
     3     1    41 1   
     4     1    42 1   
     5     2     3 1   
     6     3     4 2   
     7     3     6 1   
     8     4     5 1   
     9     5     7 2   
    10     6     7 1   
    11     6    10 1   
    12     7     8 1   
    13     8     9 2   
    14     8    43 1   
    15     9    11 1   
    16     9    44 1   
    17    10    11 2   
    18    11    12 1   
    19    12    13 1   
    20    12    15 1   
    21    13    14 1   
    22    13    45 1   
    23    13    46 1   
    24    14    17 1   
    25    14    49 1   
    26    14    50 1   
    27    15    16 1   
    28    15    47 1   
    29    15    48 1   
    30    16    17 1   
    31    16    52 1   
    32    16    53 1   
    33    17    18 1   
    34    17    51 1   
    35    18    19 ar  
    36    18    21 ar  
    37    19    20 ar  
    38    19    54 1   
    39    20    23 ar  
    40    20    56 1   
    41    21    22 ar  
    42    21    55 1   
    43    22    23 ar  
    44    22    57 1   
    45    23    24 1   
    46    24    25 1   
    47    25    26 1   
    48    25    58 1   
    49    25    59 1   
    50    26    27 1   
    51    26    60 1   
    52    26    61 1   
    53    27    28 1   
    54    27    29 1   
    55    28    62 1   
    56    28    63 1   
    57    28    64 1   
    58    29    30 1   
    59    29    32 2   
    60    30    31 2   
    61    30    65 1   
    62    31    34 1   
    63    31    66 1   
    64    32    33 1   
    65    33    34 1   
    66    33    37 1   
    67    34    35 2   
    68    35    36 1   
    69    36    37 2   
    70    37    38 1   
    71    38    39 1   
    72    39    67 1   
    73    39    68 1   
    74    39    69 1   
@<TRIPOS>SUBSTRUCTURE
     1 K6K         1 TEMP              0 ****  ****    0 ROOT
