@<TRIPOS>MOLECULE
K6K
   69    74     1     0     0
SMALL
abcg2


@<TRIPOS>ATOM
      1 C25          7.5370     3.8380     0.9530 c3         1 K6K       0.162900
      2 O2           6.9500     2.5400     0.8670 os         1 K6K      -0.391600
      3 C24          7.4140     1.7600    -0.0850 cc         1 K6K       0.571100
      4 N7           8.3390     2.0030    -0.9730 nd         1 K6K      -0.449700
      5 N6           8.4800     0.9010    -1.7510 nd         1 K6K      -0.054000
      6 N8           6.9280     0.5120    -0.2520 na         1 K6K       0.124000
      7 C23          7.6290     0.0090    -1.3130 cc         1 K6K      -0.163000
      8 C22          7.3190    -1.3200    -1.6990 cc         1 K6K      -0.009000
      9 C21          6.3710    -1.9710    -0.9960 cd         1 K6K      -0.169000
     10 N9           5.9570    -0.0850     0.4570 nc         1 K6K      -0.539800
     11 C20          5.6920    -1.3160     0.1090 cd         1 K6K       0.566900
     12 N5           4.7890    -2.0080     0.8590 nh         1 K6K      -0.754300
     13 C17          3.9610    -3.0600     0.2870 c6         1 K6K       0.204800
     14 C16          2.6590    -2.4930    -0.2680 c6         1 K6K      -0.103900
     15 C18          4.1030    -1.3300     1.9490 c6         1 K6K       0.204800
     16 C19          2.8080    -0.6850     1.4710 c6         1 K6K      -0.103900
     17 C15          1.8910    -1.7230     0.8100 c6         1 K6K      -0.007400
     18 C12          0.6240    -1.0980     0.2850 ca         1 K6K      -0.116300
     19 C11         -0.6180    -1.4390     0.8170 ca         1 K6K      -0.068000
     20 C10         -1.7890    -0.8560     0.3630 ca         1 K6K      -0.170500
     21 C13          0.6450    -0.1490    -0.7320 ca         1 K6K      -0.068000
     22 C14         -0.5180     0.4460    -1.2060 ca         1 K6K      -0.170500
     23 C9          -1.7490     0.0960    -0.6540 ca         1 K6K       0.142100
     24 O1          -2.9330     0.6130    -1.0380 os         1 K6K      -0.335100
     25 C8          -2.9510     1.6820    -1.9600 c3         1 K6K       0.135600
     26 C7          -4.3810     2.1780    -2.0710 c3         1 K6K       0.224800
     27 N4          -4.9200     2.6230    -0.8020 nh         1 K6K      -0.783300
     28 C6          -4.3750     3.8480    -0.2540 c3         1 K6K       0.211100
     29 C5          -5.6820     1.7930    -0.0470 cc         1 K6K       0.590900
     30 C4          -6.0010     2.1650     1.3210 cc         1 K6K      -0.177000
     31 C3          -6.7760     1.3670     2.0830 cd         1 K6K      -0.006000
     32 N2          -6.1240     0.6890    -0.5910 nd         1 K6K      -0.536800
     33 N3          -6.8910    -0.0690     0.2060 na         1 K6K       0.131000
     34 C2          -7.2620     0.1710     1.5000 cd         1 K6K      -0.167000
     35 N1          -8.0170    -0.8060     1.9390 nc         1 K6K      -0.056000
     36 N           -8.1450    -1.6960     0.9250 nc         1 K6K      -0.450700
     37 C1          -7.4720    -1.2480    -0.1000 cd         1 K6K       0.570100
     38 O           -7.3240    -1.7810    -1.2940 os         1 K6K      -0.389600
     39 C           -8.0120    -3.0100    -1.5180 c3         1 K6K       0.162900
     40 H251         8.6070     3.7740     1.1540 h1         1 K6K       0.053367
     41 H252         7.3760     4.4060     0.0370 h1         1 K6K       0.053367
     42 H253         7.0420     4.3360     1.7810 h1         1 K6K       0.053367
     43 H22          7.8480    -1.7850    -2.5180 ha         1 K6K       0.149000
     44 H21          6.1370    -2.9930    -1.2490 ha         1 K6K       0.134000
     45 H171         4.4950    -3.6140    -0.4810 h1         1 K6K       0.062700
     46 H172         3.7490    -3.7790     1.0830 h1         1 K6K       0.062700
     47 H181         3.8820    -2.0850     2.7090 h1         1 K6K       0.062700
     48 H182         4.7630    -0.5970     2.4050 h1         1 K6K       0.062700
     49 H161         2.8860    -1.8360    -1.1140 hc         1 K6K       0.056200
     50 H162         2.0470    -3.3100    -0.6560 hc         1 K6K       0.056200
     51 H15          1.6080    -2.4470     1.5840 hc         1 K6K       0.048700
     52 H191         2.2970    -0.2220     2.3180 hc         1 K6K       0.056200
     53 H192         3.0400     0.1150     0.7620 hc         1 K6K       0.056200
     54 H11         -0.6740    -2.1740     1.6120 ha         1 K6K       0.112500
     55 H13          1.5860     0.1490    -1.1800 ha         1 K6K       0.112500
     56 H10         -2.7420    -1.1320     0.7970 ha         1 K6K       0.123500
     57 H14         -0.4420     1.1730    -2.0030 ha         1 K6K       0.123500
     58 H81C        -2.2900     2.4900    -1.6250 h1         1 K6K       0.038700
     59 H82C        -2.6060     1.3650    -2.9500 h1         1 K6K       0.038700
     60 H71C        -4.3930     3.0140    -2.7720 h1         1 K6K       0.077700
     61 H72C        -5.0190     1.4010    -2.4850 h1         1 K6K       0.077700
     62 H61C        -5.1540     4.4830     0.1660 h1         1 K6K       0.041367
     63 H62C        -3.6160     3.6760     0.5130 h1         1 K6K       0.041367
     64 H63C        -3.9110     4.4090    -1.0620 h1         1 K6K       0.041367
     65 H4          -5.6070     3.0770     1.7410 ha         1 K6K       0.132000
     66 H3          -7.0240     1.6130     3.1060 ha         1 K6K       0.148000
     67 HC1         -7.6420    -3.7950    -0.8590 h1         1 K6K       0.053033
     68 HC2         -9.0860    -2.8940    -1.3710 h1         1 K6K       0.053033
     69 HC3         -7.8140    -3.2800    -2.5510 h1         1 K6K       0.053033
@<TRIPOS>BOND
     1     1     2 1   
     2     1    40 1   
     3     1    41 1   
     4     1    42 1   
     5     2     3 1   
     6     3     4 2   
     7     3     6 1   
     8     4     5 1   
     9     5     7 2   
    10     6     7 1   
    11     6    10 1   
    12     7     8 1   
    13     8     9 2   
    14     8    43 1   
    15     9    11 1   
    16     9    44 1   
    17    10    11 2   
    18    11    12 1   
    19    12    13 1   
    20    12    15 1   
    21    13    14 1   
    22    13    45 1   
    23    13    46 1   
    24    14    17 1   
    25    14    49 1   
    26    14    50 1   
    27    15    16 1   
    28    15    47 1   
    29    15    48 1   
    30    16    17 1   
    31    16    52 1   
    32    16    53 1   
    33    17    18 1   
    34    17    51 1   
    35    18    19 ar  
    36    18    21 ar  
    37    19    20 ar  
    38    19    54 1   
    39    20    23 ar  
    40    20    56 1   
    41    21    22 ar  
    42    21    55 1   
    43    22    23 ar  
    44    22    57 1   
    45    23    24 1   
    46    24    25 1   
    47    25    26 1   
    48    25    58 1   
    49    25    59 1   
    50    26    27 1   
    51    26    60 1   
    52    26    61 1   
    53    27    28 1   
    54    27    29 1   
    55    28    62 1   
    56    28    63 1   
    57    28    64 1   
    58    29    30 1   
    59    29    32 2   
    60    30    31 2   
    61    30    65 1   
    62    31    34 1   
    63    31    66 1   
    64    32    33 1   
    65    33    34 1   
    66    33    37 1   
    67    34    35 2   
    68    35    36 1   
    69    36    37 2   
    70    37    38 1   
    71    38    39 1   
    72    39    67 1   
    73    39    68 1   
    74    39    69 1   
@<TRIPOS>SUBSTRUCTURE
     1 K6K         1 TEMP              0 ****  ****    0 ROOT
