@<TRIPOS>MOLECULE
K6M
   42    42     1     0     0
SMALL
bcc


@<TRIPOS>ATOM
      1 N1          -0.6170     0.0430     0.0850 ns         1 K6M      -0.566900
      2 C4           4.1590     0.4240     0.0010 ca         1 K6M      -0.206300
      3 C5           2.9860    -0.3110    -0.1100 ca         1 K6M      -0.029000
      4 C6           1.7600     0.3360    -0.1940 ca         1 K6M      -0.156600
      5 C8           0.5320    -0.5110    -0.3300 c          1 K6M       0.678700
      6 C13         -7.0720    -0.8600     1.2640 c3         1 K6M      -0.096433
      7 C15         -7.1150    -0.8710    -1.2370 c3         1 K6M      -0.096433
      8 C1           1.7230     1.7290    -0.1930 ca         1 K6M      -0.078000
      9 C11         -4.3800    -0.4030    -0.0000 c3         1 K6M       0.167800
     10 C12         -6.8380    -0.0190     0.0090 c3         1 K6M       0.192200
     11 C14         -7.7990     1.1680     0.0230 c3         1 K6M      -0.096433
     12 C2           2.8960     2.4580    -0.0940 ca         1 K6M      -0.144000
     13 C3           4.1190     1.8120     0.0100 ca         1 K6M      -0.059000
     14 C9          -1.8860    -0.6510     0.0260 c3         1 K6M       0.099000
     15 F1           5.5850    -1.2560    -0.8170 f          1 K6M      -0.232967
     16 F2           6.5170     0.4870     0.0350 f          1 K6M      -0.232967
     17 F3           5.5450    -0.9490     1.3090 f          1 K6M      -0.232967
     18 N2          -5.4820     0.5400     0.0340 n7         1 K6M      -0.815200
     19 O1           0.6000    -1.6390    -0.8000 o          1 K6M      -0.595100
     20 H5          -0.5830     0.8930     0.6250 hn         1 K6M       0.314500
     21 H4           3.0130    -1.3930    -0.1300 ha         1 K6M       0.170000
     22 H9          -2.9610     1.0150    -0.7960 hc         1 K6M       0.049700
     23 H8          -3.0070     0.9390     0.9620 hc         1 K6M       0.049700
     24 H13         -6.4760    -1.7740     1.2670 hc         1 K6M       0.037589
     25 H14         -6.8270    -0.2930     2.1650 hc         1 K6M       0.037589
     26 H15         -8.1190    -1.1590     1.3290 hc         1 K6M       0.037589
     27 H19         -8.1410    -1.2420    -1.2370 hc         1 K6M       0.037589
     28 H20         -6.9770    -0.2850    -2.1490 hc         1 K6M       0.037589
     29 H21         -6.4550    -1.7380    -1.2920 hc         1 K6M       0.037589
     30 H1           0.7860     2.2610    -0.2960 ha         1 K6M       0.136000
     31 H10         -4.3860    -1.0560    -0.8860 h1         1 K6M       0.032700
     32 H11         -4.4490    -1.0620     0.8680 h1         1 K6M       0.032700
     33 H18         -7.6520     1.7820     0.9130 hc         1 K6M       0.037589
     34 H16         -7.6520     1.8060    -0.8520 hc         1 K6M       0.037589
     35 H17         -8.8360     0.8280     0.0130 hc         1 K6M       0.037589
     36 H2           2.8610     3.5390    -0.1040 ha         1 K6M       0.142000
     37 H3           5.0230     2.3990     0.0900 ha         1 K6M       0.152000
     38 H6          -1.9190    -1.2400    -0.8910 h1         1 K6M       0.054700
     39 H7          -1.9750    -1.3560     0.8600 h1         1 K6M       0.054700
     40 H12         -5.3870     1.1700    -0.7550 hn         1 K6M       0.351800
     41 C7           5.4540    -0.3160     0.1300 c3         1 K6M       0.722200
     42 C10         -3.0470     0.3300     0.0540 c3         1 K6M      -0.099400
@<TRIPOS>BOND
     1     1     5 1   
     2     1    14 1   
     3     1    20 1   
     4     2     3 ar  
     5     2    13 ar  
     6     2    41 1   
     7     3     4 ar  
     8     3    21 1   
     9     4     5 1   
    10     4     8 ar  
    11     5    19 2   
    12     6    10 1   
    13     6    24 1   
    14     6    25 1   
    15     6    26 1   
    16     7    10 1   
    17     7    27 1   
    18     7    28 1   
    19     7    29 1   
    20     8    12 ar  
    21     8    30 1   
    22     9    18 1   
    23     9    31 1   
    24     9    32 1   
    25     9    42 1   
    26    10    11 1   
    27    10    18 1   
    28    11    33 1   
    29    11    34 1   
    30    11    35 1   
    31    12    13 ar  
    32    12    36 1   
    33    13    37 1   
    34    14    38 1   
    35    14    39 1   
    36    14    42 1   
    37    15    41 1   
    38    16    41 1   
    39    17    41 1   
    40    18    40 1   
    41    22    42 1   
    42    23    42 1   
@<TRIPOS>SUBSTRUCTURE
     1 K6M         1 TEMP              0 ****  ****    0 ROOT
