@<TRIPOS>MOLECULE
K6M
   42    42     1     0     0
SMALL
No Charge or Current Charge


@<TRIPOS>ATOM
      1 N1          -0.6130    -0.0370    -0.0170 ns         1 K6M      -0.499900
      2 C4           4.2880     0.4630    -0.0250 ca         1 K6M      -0.206300
      3 C5           3.1230    -0.3350    -0.0470 ca         1 K6M      -0.011000
      4 C6           1.8350     0.2470    -0.0190 ca         1 K6M      -0.156600
      5 C8           0.6180    -0.6540    -0.0480 c          1 K6M       0.611700
      6 C13         -7.1950    -0.8580     1.2640 c3         1 K6M      -0.096433
      7 C15         -7.2400    -0.7870    -1.2870 c3         1 K6M      -0.096433
      8 C1           1.7300     1.6570     0.0390 ca         1 K6M      -0.060000
      9 C11         -4.4410    -0.4980    -0.0380 c3         1 K6M       0.167800
     10 C12         -6.9390     0.0120     0.0070 c3         1 K6M       0.192200
     11 C14         -7.8330     1.2730     0.0580 c3         1 K6M      -0.096433
     12 C2           2.8850     2.4540     0.0710 ca         1 K6M      -0.126000
     13 C3           4.1580     1.8650     0.0420 ca         1 K6M      -0.041000
     14 C9          -1.8930    -0.7460    -0.0380 c3         1 K6M       0.099000
     15 F1           5.7010    -1.2840    -0.8540 f          1 K6M      -0.111667
     16 F2           6.6410     0.6350    -0.4870 f          1 K6M      -0.111667
     17 F3           6.0360    -0.6130     1.1860 f          1 K6M      -0.111667
     18 N2          -5.5390     0.4940    -0.0080 n7         1 K6M      -0.870400
     19 O1           0.7100    -1.8730    -0.0980 o          1 K6M      -0.595100
     20 H5          -0.6210     0.9740     0.0240 hn         1 K6M       0.314500
     21 H4           3.2210    -1.4190    -0.0850 ha         1 K6M       0.152000
     22 H9          -3.0170     0.8980    -0.8850 hc         1 K6M       0.049700
     23 H8          -3.0230     0.8530     0.8830 hc         1 K6M       0.049700
     24 H13         -6.6380    -1.8010     1.2230 hc         1 K6M       0.037589
     25 H14         -6.9020    -0.3240     2.1770 hc         1 K6M       0.037589
     26 H15         -8.2590    -1.1100     1.3480 hc         1 K6M       0.037589
     27 H19         -8.3040    -1.0470    -1.3390 hc         1 K6M       0.037589
     28 H20         -6.9930    -0.1990    -2.1800 hc         1 K6M       0.037589
     29 H21         -6.6720    -1.7230    -1.3240 hc         1 K6M       0.037589
     30 H1           0.7630     2.1540     0.0630 ha         1 K6M       0.118000
     31 H10         -4.4940    -1.1150    -0.9460 h1         1 K6M       0.032700
     32 H11         -4.4910    -1.1680     0.8310 h1         1 K6M       0.032700
     33 H18         -7.6250     1.8660     0.9580 hc         1 K6M       0.037589
     34 H16         -7.6640     1.9130    -0.8170 hc         1 K6M       0.037589
     35 H17         -8.8950     0.9980     0.0740 hc         1 K6M       0.037589
     36 H2           2.7930     3.5370     0.1200 ha         1 K6M       0.124000
     37 H3           5.0380     2.5060     0.0750 ha         1 K6M       0.134000
     38 H6          -1.9400    -1.3650    -0.9440 h1         1 K6M       0.054700
     39 H7          -1.9450    -1.4090     0.8360 h1         1 K6M       0.054700
     40 H12         -5.4300     1.1100    -0.8200 hn         1 K6M       0.407000
     41 C7           5.6710    -0.1990    -0.0470 c3         1 K6M       0.358300
     42 C10         -3.0840     0.2290    -0.0180 c3         1 K6M      -0.099400
@<TRIPOS>BOND
     1     1     5 1   
     2     1    14 1   
     3     1    20 1   
     4     2     3 ar  
     5     2    13 ar  
     6     2    41 1   
     7     3     4 ar  
     8     3    21 1   
     9     4     5 1   
    10     4     8 ar  
    11     5    19 2   
    12     6    10 1   
    13     6    24 1   
    14     6    25 1   
    15     6    26 1   
    16     7    10 1   
    17     7    27 1   
    18     7    28 1   
    19     7    29 1   
    20     8    12 ar  
    21     8    30 1   
    22     9    18 1   
    23     9    31 1   
    24     9    32 1   
    25     9    42 1   
    26    10    11 1   
    27    10    18 1   
    28    11    33 1   
    29    11    34 1   
    30    11    35 1   
    31    12    13 ar  
    32    12    36 1   
    33    13    37 1   
    34    14    38 1   
    35    14    39 1   
    36    14    42 1   
    37    15    41 1   
    38    16    41 1   
    39    17    41 1   
    40    18    40 1   
    41    22    42 1   
    42    23    42 1   
@<TRIPOS>SUBSTRUCTURE
     1 K6M         1 TEMP              0 ****  ****    0 ROOT
