@<TRIPOS>MOLECULE
K6N
   32    34     1     0     0
SMALL
No Charge or Current Charge


@<TRIPOS>ATOM
      1 C10        -17.2680   -21.1460    -4.3280 ca         1 K6N      -0.099000
      2 C15        -19.5260   -23.1600    -9.0890 cc         1 K6N       0.487900
      3 C17        -20.4880   -22.7040    -7.1600 cd         1 K6N      -0.126000
      4 C02        -19.1510   -20.0510    -6.0780 ca         1 K6N      -0.196000
      5 C03        -18.6600   -19.2950    -5.0320 ca         1 K6N      -0.064800
      6 C04        -19.2170   -17.9650    -4.9870 cc         1 K6N      -0.169200
      7 C05        -20.1400   -17.7490    -6.0090 cd         1 K6N      -0.161000
      8 C06        -20.8860   -16.5190    -6.2880 cf         1 K6N       0.689500
      9 C09        -17.7140   -19.8230    -4.1410 ca         1 K6N      -0.084000
     10 C11        -17.7690   -21.9190    -5.3970 ca         1 K6N      -0.138000
     11 C12        -18.7210   -21.3760    -6.2860 ca         1 K6N       0.065800
     12 C16        -20.6940   -23.3810    -8.3290 cc         1 K6N      -0.222300
     13 C18        -21.8860   -24.1980    -8.7560 c3         1 K6N      -0.004800
     14 N07        -21.4450   -16.3000    -7.4070 n2         1 K6N      -0.836100
     15 N08        -20.9180   -15.5920    -5.3370 nv         1 K6N      -1.068200
     16 N13        -19.2230   -22.1420    -7.3400 na         1 K6N       0.222000
     17 N14        -18.6030   -22.4250    -8.5420 nd         1 K6N      -0.585800
     18 S01        -20.3270   -19.1700    -7.0820 ss         1 K6N       0.278400
     19 H1         -16.5340   -21.5720    -3.6460 ha         1 K6N       0.116000
     20 H2         -21.0920   -22.5760    -6.2700 h4         1 K6N       0.156000
     21 H3         -18.9380   -17.2140    -4.2520 ha         1 K6N       0.198000
     22 H4         -17.3310   -19.2230    -3.3190 ha         1 K6N       0.118000
     23 H5         -17.4200   -22.9400    -5.5340 ha         1 K6N       0.115000
     24 H6         -21.6070   -25.2460    -8.9170 hc         1 K6N       0.038367
     25 H7         -22.6720   -24.1740    -7.9910 hc         1 K6N       0.038367
     26 H8         -22.3140   -23.8100    -9.6880 hc         1 K6N       0.038367
     27 H9         -21.7190   -15.3130    -7.4350 hn         1 K6N       0.377400
     28 H10        -20.6330   -15.8630    -4.4050 hn         1 K6N       0.462000
     29 H11        -21.6120   -14.8560    -5.3860 hn         1 K6N       0.462000
     30 H12        -18.3860   -23.6470   -10.6760 hn         1 K6N       0.449500
     31 H13        -19.9250   -24.4370   -10.6120 hn         1 K6N       0.449500
     32 N19        -19.3330   -23.6710   -10.3140 nv         1 K6N      -1.008900
@<TRIPOS>BOND
     1     1     9 ar  
     2     1    10 ar  
     3     1    19 1   
     4     2    12 1   
     5     2    17 2   
     6     2    32 1   
     7     3    12 2   
     8     3    16 1   
     9     3    20 1   
    10     4     5 ar  
    11     4    11 ar  
    12     4    18 1   
    13     5     6 1   
    14     5     9 ar  
    15     6     7 2   
    16     6    21 1   
    17     7     8 1   
    18     7    18 1   
    19     8    14 2   
    20     8    15 1   
    21     9    22 1   
    22    10    11 ar  
    23    10    23 1   
    24    11    16 1   
    25    12    13 1   
    26    13    24 1   
    27    13    25 1   
    28    13    26 1   
    29    14    27 1   
    30    15    28 1   
    31    15    29 1   
    32    16    17 1   
    33    30    32 1   
    34    31    32 1   
@<TRIPOS>SUBSTRUCTURE
     1 K6N         1 TEMP              0 ****  ****    0 ROOT
