@<TRIPOS>MOLECULE
K6N
   32    34     1     0     0
SMALL
bcc


@<TRIPOS>ATOM
      1 C10        -18.0960   -21.2720    -3.8010 ca         1 K6N      -0.117000
      2 C15        -20.4310   -22.5760    -8.9600 cc         1 K6N       0.553200
      3 C17        -19.8150   -23.5460    -7.0900 cd         1 K6N      -0.093300
      4 C02        -19.3350   -20.0370    -5.9580 ca         1 K6N      -0.069100
      5 C03        -18.8840   -19.2800    -4.8580 ca         1 K6N      -0.064800
      6 C04        -19.1600   -17.8870    -5.0230 cc         1 K6N      -0.119200
      7 C05        -19.7910   -17.6160    -6.1890 cd         1 K6N      -0.161000
      8 C06        -20.2330   -16.3200    -6.7290 cf         1 K6N       0.689500
      9 C09        -18.2590   -19.9040    -3.7730 ca         1 K6N      -0.102000
     10 C11        -18.5440   -22.0280    -4.8850 ca         1 K6N      -0.156000
     11 C12        -19.1780   -21.4310    -5.9660 ca         1 K6N       0.065800
     12 C16        -20.3180   -23.8440    -8.3240 cc         1 K6N      -0.287600
     13 C18        -20.6960   -25.1690    -8.8880 c3         1 K6N      -0.004800
     14 N07        -20.6150   -16.2960    -7.9490 n2         1 K6N      -0.836100
     15 N08        -20.1410   -15.2610    -5.8750 nv         1 K6N      -0.957800
     16 N13        -19.6510   -22.2010    -7.0260 na         1 K6N       0.171300
     17 N14        -20.0250   -21.6040    -8.1740 nd         1 K6N      -0.585800
     18 S01        -20.0650   -19.0250    -7.1670 ss         1 K6N       0.151500
     19 H1         -17.6090   -21.7780    -2.9790 ha         1 K6N       0.134000
     20 H2         -19.5870   -24.2000    -6.2630 h4         1 K6N       0.174000
     21 H3         -18.8770   -17.1450    -4.2880 ha         1 K6N       0.148000
     22 H4         -17.9120   -19.3190    -2.9320 ha         1 K6N       0.136000
     23 H5         -18.3800   -23.0970    -4.8740 ha         1 K6N       0.133000
     24 H6         -20.0920   -25.4280    -9.7600 hc         1 K6N       0.038367
     25 H7         -20.5630   -25.9600    -8.1520 hc         1 K6N       0.038367
     26 H8         -21.7410   -25.1830    -9.2060 hc         1 K6N       0.038367
     27 H9         -20.9130   -15.3670    -8.2310 hn         1 K6N       0.377400
     28 H10        -20.1860   -15.4380    -4.8850 hn         1 K6N       0.406800
     29 H11        -20.5960   -14.4060    -6.1520 hn         1 K6N       0.406800
     30 H12        -20.7580   -21.4300   -10.5810 hn         1 K6N       0.394300
     31 H13        -20.7440   -23.0610   -10.8880 hn         1 K6N       0.394300
     32 N19        -20.9580   -22.3460   -10.2090 nv         1 K6N      -0.898500
@<TRIPOS>BOND
     1     1     9 ar  
     2     1    10 ar  
     3     1    19 1   
     4     2    12 1   
     5     2    17 2   
     6     2    32 1   
     7     3    12 2   
     8     3    16 1   
     9     3    20 1   
    10     4     5 ar  
    11     4    11 ar  
    12     4    18 1   
    13     5     6 1   
    14     5     9 ar  
    15     6     7 2   
    16     6    21 1   
    17     7     8 1   
    18     7    18 1   
    19     8    14 2   
    20     8    15 1   
    21     9    22 1   
    22    10    11 ar  
    23    10    23 1   
    24    11    16 1   
    25    12    13 1   
    26    13    24 1   
    27    13    25 1   
    28    13    26 1   
    29    14    27 1   
    30    15    28 1   
    31    15    29 1   
    32    16    17 1   
    33    30    32 1   
    34    31    32 1   
@<TRIPOS>SUBSTRUCTURE
     1 K6N         1 TEMP              0 ****  ****    0 ROOT
