@<TRIPOS>MOLECULE
K6P
   39    39     1     0     0
SMALL
No Charge or Current Charge


@<TRIPOS>ATOM
      1 N1           1.6040     0.0800     0.0090 ns         1 K6P      -0.500900
      2 C4          -3.2600     0.7830     0.0280 ca         1 K6P       0.184000
      3 C5          -2.1430    -0.0670     0.0380 ca         1 K6P      -0.029000
      4 C6          -0.8300     0.4630     0.0190 ca         1 K6P      -0.152600
      5 C7           0.3490    -0.4870     0.0300 c          1 K6P       0.610700
      6 C8           2.8540    -0.6810     0.0160 c3         1 K6P       0.100000
      7 C10          5.4090    -0.5370     0.0180 c3         1 K6P       0.167800
      8 C13          8.1460    -0.9800    -1.2950 c3         1 K6P      -0.096433
      9 C1          -0.6710     1.8720    -0.0110 ca         1 K6P      -0.075000
     10 C11          7.9260    -0.1270    -0.0190 c3         1 K6P       0.192200
     11 C12          8.1950    -0.9630     1.2580 c3         1 K6P      -0.096433
     12 C14          8.8700     1.0980    -0.0460 c3         1 K6P      -0.096433
     13 C2          -1.7950     2.7180    -0.0210 ca         1 K6P      -0.122000
     14 C3          -3.0900     2.1750    -0.0010 ca         1 K6P      -0.061000
     15 C9           4.0830     0.2460     0.0130 c3         1 K6P      -0.099400
     16 N2           6.5460     0.4110     0.0060 n7         1 K6P      -0.870400
     17 O1           0.2050    -1.7020     0.0560 o          1 K6P      -0.598100
     18 H5           1.6520     1.0900    -0.0120 hn         1 K6P       0.315500
     19 H4          -2.3050    -1.1410     0.0610 ha         1 K6P       0.149000
     20 H7           2.8760    -1.3190     0.9100 h1         1 K6P       0.053700
     21 H6           2.8790    -1.3280    -0.8710 h1         1 K6P       0.053700
     22 H11          5.4370    -1.1730     0.9130 h1         1 K6P       0.032700
     23 H10          5.4320    -1.1900    -0.8640 h1         1 K6P       0.032700
     24 H16          7.5510    -1.9010    -1.2720 hc         1 K6P       0.037811
     25 H17          7.8750    -0.4170    -2.1960 hc         1 K6P       0.037811
     26 H18          9.1990    -1.2730    -1.3840 hc         1 K6P       0.037811
     27 H1           0.3150     2.3290    -0.0270 ha         1 K6P       0.117000
     28 H13          9.2470    -1.2670     1.3040 hc         1 K6P       0.037811
     29 H14          7.9720    -0.3850     2.1630 hc         1 K6P       0.037811
     30 H15          7.5890    -1.8770     1.2760 hc         1 K6P       0.037811
     31 H19          8.6870     1.7170    -0.9330 hc         1 K6P       0.037811
     32 H20          8.7280     1.7260     0.8420 hc         1 K6P       0.037811
     33 H21          9.9200     0.7810    -0.0680 hc         1 K6P       0.037811
     34 H2          -1.6610     3.7970    -0.0440 ha         1 K6P       0.120000
     35 H3          -3.9580     2.8280    -0.0090 ha         1 K6P       0.129000
     36 H9           4.0470     0.8890    -0.8740 hc         1 K6P       0.049200
     37 H8           4.0430     0.8990     0.8940 hc         1 K6P       0.049200
     38 H12          6.4620     1.0140     0.8310 hn         1 K6P       0.407000
     39 I1          -5.2570    -0.0570     0.0590 i          1 K6P      -0.304000
@<TRIPOS>BOND
     1     1     5 1   
     2     1     6 1   
     3     1    18 1   
     4     2     3 ar  
     5     2    14 ar  
     6     2    39 1   
     7     3     4 ar  
     8     3    19 1   
     9     4     5 1   
    10     4     9 ar  
    11     5    17 2   
    12     6    15 1   
    13     6    20 1   
    14     6    21 1   
    15     7    15 1   
    16     7    16 1   
    17     7    22 1   
    18     7    23 1   
    19     8    10 1   
    20     8    24 1   
    21     8    25 1   
    22     8    26 1   
    23     9    13 ar  
    24     9    27 1   
    25    10    11 1   
    26    10    12 1   
    27    10    16 1   
    28    11    28 1   
    29    11    29 1   
    30    11    30 1   
    31    12    31 1   
    32    12    32 1   
    33    12    33 1   
    34    13    14 ar  
    35    13    34 1   
    36    14    35 1   
    37    15    36 1   
    38    15    37 1   
    39    16    38 1   
@<TRIPOS>SUBSTRUCTURE
     1 K6P         1 TEMP              0 ****  ****    0 ROOT
