@<TRIPOS>MOLECULE
K6P
   39    39     1     0     0
SMALL
abcg2


@<TRIPOS>ATOM
      1 N1           1.6240     0.1190    -0.0930 ns         1 K6P      -0.500900
      2 C4          -3.1140     0.7100    -0.1180 ca         1 K6P       0.184000
      3 C5          -1.9890    -0.0880    -0.0050 ca         1 K6P      -0.029000
      4 C6          -0.7400     0.5070     0.1550 ca         1 K6P      -0.152600
      5 C7           0.4480    -0.3980     0.2880 c          1 K6P       0.610700
      6 C8           2.8660    -0.6220    -0.0240 c3         1 K6P       0.100000
      7 C10          5.3700    -0.4550    -0.0040 c3         1 K6P       0.167800
      8 C13          8.0500    -0.9800    -1.2770 c3         1 K6P      -0.096433
      9 C1          -0.6410     1.8930     0.2280 ca         1 K6P      -0.075000
     10 C11          7.8390    -0.1370    -0.0190 c3         1 K6P       0.192200
     11 C12          8.0950    -0.9990     1.2240 c3         1 K6P      -0.096433
     12 C14          8.8290     1.0260    -0.0310 c3         1 K6P      -0.096433
     13 C2          -1.7800     2.6780     0.1260 ca         1 K6P      -0.122000
     14 C3          -3.0260     2.0940    -0.0530 ca         1 K6P      -0.061000
     15 C9           4.0600     0.3190    -0.0580 c3         1 K6P      -0.099400
     16 N2           6.4970     0.4570    -0.0410 n7         1 K6P      -0.870400
     17 O1           0.3260    -1.5350     0.7240 o          1 K6P      -0.598100
     18 H5           1.6340     0.9870    -0.6060 hn         1 K6P       0.315500
     19 H4          -2.0650    -1.1670    -0.0450 ha         1 K6P       0.149000
     20 H7           2.8760    -1.2040     0.8990 h1         1 K6P       0.053700
     21 H6           2.9310    -1.3370    -0.8520 h1         1 K6P       0.053700
     22 H11          5.3580    -1.1070     0.8830 h1         1 K6P       0.032700
     23 H10          5.4190    -1.1180    -0.8710 h1         1 K6P       0.032700
     24 H16          7.4250    -1.8740    -1.2870 hc         1 K6P       0.037811
     25 H17          7.8290    -0.4010    -2.1760 hc         1 K6P       0.037811
     26 H18          9.0870    -1.3130    -1.3380 hc         1 K6P       0.037811
     27 H1           0.3140     2.3760     0.3910 ha         1 K6P       0.117000
     28 H13          9.1140    -1.3940     1.2230 hc         1 K6P       0.037811
     29 H14          7.9710    -0.4140     2.1380 hc         1 K6P       0.037811
     30 H15          7.4170    -1.8530     1.2760 hc         1 K6P       0.037811
     31 H19          8.6960     1.6450    -0.9200 hc         1 K6P       0.037811
     32 H20          8.6980     1.6640     0.8460 hc         1 K6P       0.037811
     33 H21          9.8570     0.6600    -0.0220 hc         1 K6P       0.037811
     34 H2          -1.7020     3.7540     0.1920 ha         1 K6P       0.120000
     35 H3          -3.9060     2.7180    -0.1350 ha         1 K6P       0.129000
     36 H9           4.0370     0.9250    -0.9690 hc         1 K6P       0.049200
     37 H8           3.9990     1.0090     0.7890 hc         1 K6P       0.049200
     38 H12          6.4200     1.0900     0.7470 hn         1 K6P       0.407000
     39 I1          -4.9960    -0.1930    -0.3860 i          1 K6P      -0.304000
@<TRIPOS>BOND
     1     1     5 1   
     2     1     6 1   
     3     1    18 1   
     4     2     3 ar  
     5     2    14 ar  
     6     2    39 1   
     7     3     4 ar  
     8     3    19 1   
     9     4     5 1   
    10     4     9 ar  
    11     5    17 2   
    12     6    15 1   
    13     6    20 1   
    14     6    21 1   
    15     7    15 1   
    16     7    16 1   
    17     7    22 1   
    18     7    23 1   
    19     8    10 1   
    20     8    24 1   
    21     8    25 1   
    22     8    26 1   
    23     9    13 ar  
    24     9    27 1   
    25    10    11 1   
    26    10    12 1   
    27    10    16 1   
    28    11    28 1   
    29    11    29 1   
    30    11    30 1   
    31    12    31 1   
    32    12    32 1   
    33    12    33 1   
    34    13    14 ar  
    35    13    34 1   
    36    14    35 1   
    37    15    36 1   
    38    15    37 1   
    39    16    38 1   
@<TRIPOS>SUBSTRUCTURE
     1 K6P         1 TEMP              0 ****  ****    0 ROOT
