@<TRIPOS>MOLECULE
K6Q
   38    39     1     0     0
SMALL
abcg2


@<TRIPOS>ATOM
      1 FAB         -6.3590    -1.3920     0.4130 f          1 K6Q      -0.179000
      2 CAP         -5.1340    -0.8650     0.2510 ca         1 K6Q       0.172000
      3 CAG         -5.0140     0.4210    -0.2330 ca         1 K6Q      -0.152000
      4 CAI         -3.7420     0.9490    -0.3970 ca         1 K6Q      -0.076000
      5 CAH         -4.0270    -1.6310     0.5720 ca         1 K6Q      -0.152000
      6 CAJ         -2.7660    -1.0860     0.4010 ca         1 K6Q      -0.076000
      7 CAQ         -2.5960     0.2150    -0.0840 ca         1 K6Q      -0.063800
      8 CAD         -1.2830     0.8360    -0.2830 ce         1 K6Q      -0.163200
      9 CAE         -0.0910     0.3180     0.0170 c2         1 K6Q      -0.198200
     10 CAR          1.2110     1.0060    -0.2380 c6         1 K6Q      -0.028500
     11 CAM          2.0520     0.2230    -1.2560 c6         1 K6Q      -0.105900
     12 CAO          3.4120     0.8880    -1.4500 c6         1 K6Q       0.190300
     13 CAL          2.0100     1.1960     1.0580 c6         1 K6Q      -0.105900
     14 CAN          3.3820     1.8020     0.7700 c6         1 K6Q       0.190300
     15 NAS          4.1330     1.0240    -0.2000 nh         1 K6Q      -0.635400
     16 CAF          4.8270    -0.0660     0.2960 c2         1 K6Q      -0.008000
     17 CAC          5.1200    -1.2260    -0.3050 c2         1 K6Q      -0.315200
     18 CAK          5.9830    -2.2720     0.3300 c3         1 K6Q      -0.034900
     19 H1          -5.8930     1.0030    -0.4780 ha         1 K6Q       0.131500
     20 H2          -3.6400     1.9590    -0.7770 ha         1 K6Q       0.116500
     21 H3          -4.1490    -2.6390     0.9460 ha         1 K6Q       0.131500
     22 H4          -1.9060    -1.6950     0.6470 ha         1 K6Q       0.116500
     23 H5          -1.3100     1.8280    -0.7270 ha         1 K6Q       0.170000
     24 H6          -0.0180    -0.6710     0.4670 ha         1 K6Q       0.171000
     25 H7           1.0040     1.9980    -0.6600 hc         1 K6Q       0.049700
     26 H8           2.1890    -0.8060    -0.9070 hc         1 K6Q       0.050450
     27 H9           1.5260     0.1670    -2.2120 hc         1 K6Q       0.050450
     28 H10          4.0210     0.3430    -2.1710 h1         1 K6Q       0.053700
     29 H11          3.2670     1.8910    -1.8640 h1         1 K6Q       0.053700
     30 H12          1.4600     1.8400     1.7470 hc         1 K6Q       0.050450
     31 H13          2.1370     0.2280     1.5550 hc         1 K6Q       0.050450
     32 H14          3.2590     2.8170     0.3760 h1         1 K6Q       0.053700
     33 H15          3.9650     1.8880     1.6890 h1         1 K6Q       0.053700
     34 H16          5.2080     0.1060     1.3000 h4         1 K6Q       0.175000
     35 H17          4.7420    -1.4480    -1.2970 ha         1 K6Q       0.169000
     36 H18          6.8860    -2.4700    -0.2540 hc         1 K6Q       0.031033
     37 H19          6.3030    -1.9760     1.3300 hc         1 K6Q       0.031033
     38 H20          5.4590    -3.2270     0.4220 hc         1 K6Q       0.031033
@<TRIPOS>BOND
     1     1     2 1   
     2     2     3 ar  
     3     2     5 ar  
     4     3     4 ar  
     5     3    19 1   
     6     4     7 ar  
     7     4    20 1   
     8     5     6 ar  
     9     5    21 1   
    10     6     7 ar  
    11     6    22 1   
    12     7     8 1   
    13     8     9 2   
    14     8    23 1   
    15     9    10 1   
    16     9    24 1   
    17    10    11 1   
    18    10    13 1   
    19    10    25 1   
    20    11    12 1   
    21    11    26 1   
    22    11    27 1   
    23    12    15 1   
    24    12    28 1   
    25    12    29 1   
    26    13    14 1   
    27    13    30 1   
    28    13    31 1   
    29    14    15 1   
    30    14    32 1   
    31    14    33 1   
    32    15    16 1   
    33    16    17 2   
    34    16    34 1   
    35    17    18 1   
    36    17    35 1   
    37    18    36 1   
    38    18    37 1   
    39    18    38 1   
@<TRIPOS>SUBSTRUCTURE
     1 K6Q         1 TEMP              0 ****  ****    0 ROOT
