@<TRIPOS>MOLECULE
K6Q
   38    39     1     0     0
SMALL
No Charge or Current Charge


@<TRIPOS>ATOM
      1 FAB         -6.3780    -1.4860     0.4090 f          1 K6Q      -0.179000
      2 CAP         -5.1510    -0.9550     0.2200 ca         1 K6Q       0.172000
      3 CAG         -5.0110     0.2440    -0.4930 ca         1 K6Q      -0.152000
      4 CAI         -3.7330     0.7960    -0.6910 ca         1 K6Q      -0.076000
      5 CAH         -4.0210    -1.6060     0.7350 ca         1 K6Q      -0.152000
      6 CAJ         -2.7420    -1.0550     0.5380 ca         1 K6Q      -0.076000
      7 CAQ         -2.5870     0.1550    -0.1740 ca         1 K6Q      -0.063800
      8 CAD         -1.2480     0.7730    -0.4080 ce         1 K6Q      -0.163200
      9 CAE         -0.0970     0.4400     0.2200 c2         1 K6Q      -0.198200
     10 CAR          1.2310     1.1210    -0.0780 c6         1 K6Q      -0.028500
     11 CAM          2.0110     0.3560    -1.1810 c6         1 K6Q      -0.105900
     12 CAO          3.4060     0.9920    -1.4190 c6         1 K6Q       0.190300
     13 CAL          2.1030     1.2520     1.2020 c6         1 K6Q      -0.105900
     14 CAN          3.4890     1.8620     0.8710 c6         1 K6Q       0.190300
     15 NAS          4.1830     1.0230    -0.1440 nh         1 K6Q      -0.635400
     16 CAF          4.9470    -0.0630     0.2930 c2         1 K6Q      -0.008000
     17 CAC          5.0280    -1.2450    -0.3390 c2         1 K6Q      -0.315200
     18 CAK          5.8430    -2.4260     0.1430 c3         1 K6Q      -0.034900
     19 H1          -5.8910     0.7430    -0.8920 ha         1 K6Q       0.131500
     20 H2          -3.6340     1.7270    -1.2450 ha         1 K6Q       0.116500
     21 H3          -4.1360    -2.5380     1.2830 ha         1 K6Q       0.131500
     22 H4          -1.8790    -1.5830     0.9360 ha         1 K6Q       0.116500
     23 H5          -1.2410     1.5690    -1.1550 ha         1 K6Q       0.170000
     24 H6          -0.0670    -0.3400     0.9800 ha         1 K6Q       0.171000
     25 H7           1.0270     2.1370    -0.4480 hc         1 K6Q       0.049700
     26 H8           2.1270    -0.6980    -0.8940 hc         1 K6Q       0.050450
     27 H9           1.4390     0.3630    -2.1190 hc         1 K6Q       0.050450
     28 H10          3.9510     0.4590    -2.2120 h1         1 K6Q       0.053700
     29 H11          3.2580     2.0190    -1.7840 h1         1 K6Q       0.053700
     30 H12          1.5900     1.8800     1.9420 hc         1 K6Q       0.050450
     31 H13          2.2410     0.2660     1.6680 hc         1 K6Q       0.050450
     32 H14          3.3420     2.8800     0.4800 h1         1 K6Q       0.053700
     33 H15          4.0930     1.9530     1.7860 h1         1 K6Q       0.053700
     34 H16          5.4810     0.1100     1.2320 h4         1 K6Q       0.175000
     35 H17          4.4910    -1.4400    -1.2660 ha         1 K6Q       0.169000
     36 H18          6.5970    -2.7110    -0.6000 hc         1 K6Q       0.031033
     37 H19          6.3660    -2.2010     1.0810 hc         1 K6Q       0.031033
     38 H20          5.2010    -3.2980     0.3200 hc         1 K6Q       0.031033
@<TRIPOS>BOND
     1     1     2 1   
     2     2     3 ar  
     3     2     5 ar  
     4     3     4 ar  
     5     3    19 1   
     6     4     7 ar  
     7     4    20 1   
     8     5     6 ar  
     9     5    21 1   
    10     6     7 ar  
    11     6    22 1   
    12     7     8 1   
    13     8     9 2   
    14     8    23 1   
    15     9    10 1   
    16     9    24 1   
    17    10    11 1   
    18    10    13 1   
    19    10    25 1   
    20    11    12 1   
    21    11    26 1   
    22    11    27 1   
    23    12    15 1   
    24    12    28 1   
    25    12    29 1   
    26    13    14 1   
    27    13    30 1   
    28    13    31 1   
    29    14    15 1   
    30    14    32 1   
    31    14    33 1   
    32    15    16 1   
    33    16    17 2   
    34    16    34 1   
    35    17    18 1   
    36    17    35 1   
    37    18    36 1   
    38    18    37 1   
    39    18    38 1   
@<TRIPOS>SUBSTRUCTURE
     1 K6Q         1 TEMP              0 ****  ****    0 ROOT
