@<TRIPOS>MOLECULE
K6R
   27    28     1     0     0
SMALL
abcg2


@<TRIPOS>ATOM
      1 C1          29.2040   -30.4220   -15.7890 ca         1 K6R       0.521000
      2 C2          30.0010   -32.4100   -15.1200 ca         1 K6R       0.405900
      3 C3          29.9050   -32.0940   -13.7900 ca         1 K6R      -0.251000
      4 C4          29.4190   -30.8250   -13.4150 ca         1 K6R       0.424000
      5 C5          29.6280   -31.2920   -11.0100 c3         1 K6R       0.272100
      6 C6          28.6520   -32.4290   -10.8030 ca         1 K6R      -0.122300
      7 C7          29.1160   -33.6790   -10.4110 ca         1 K6R      -0.097500
      8 C8          28.2280   -34.7230   -10.1780 ca         1 K6R      -0.106000
      9 C9          26.8650   -34.5250   -10.3420 ca         1 K6R      -0.100000
     10 C10         26.3950   -33.2790   -10.7380 ca         1 K6R      -0.106000
     11 C11         27.2830   -32.2370   -10.9670 ca         1 K6R      -0.097500
     12 N1          29.3130   -30.4440   -12.1380 nu         1 K6R      -0.954200
     13 N2          28.1380   -27.6210   -13.9500 n1         1 K6R      -0.461000
     14 C           29.0530   -29.9630   -14.4800 ca         1 K6R      -0.181000
     15 N           29.6580   -31.5940   -16.1270 nb         1 K6R      -0.701000
     16 CL          28.7550   -29.3610   -17.0790 cl         1 K6R      -0.150000
     17 H1          30.3770   -33.3830   -15.4100 h4         1 K6R       0.025100
     18 H2          30.2030   -32.8230   -13.0510 ha         1 K6R       0.136000
     19 H3          30.6440   -31.6830   -11.1030 h1         1 K6R       0.060700
     20 H4          29.6310   -30.6450   -10.1320 h1         1 K6R       0.060700
     21 H5          30.1810   -33.8430   -10.2910 ha         1 K6R       0.113000
     22 H6          28.6050   -35.6920    -9.8770 ha         1 K6R       0.117000
     23 H7          26.1710   -35.3370   -10.1670 ha         1 K6R       0.117000
     24 H8          25.3330   -33.1170   -10.8690 ha         1 K6R       0.117000
     25 H9          26.9040   -31.2710   -11.2780 ha         1 K6R       0.113000
     26 H10         28.9450   -29.5290   -11.9290 hn         1 K6R       0.507000
     27 C12         28.5490   -28.6680   -14.2090 cg         1 K6R       0.339000
@<TRIPOS>BOND
     1     1    14 ar  
     2     1    15 ar  
     3     1    16 1   
     4     2     3 ar  
     5     2    15 ar  
     6     2    17 1   
     7     3     4 ar  
     8     3    18 1   
     9     4    12 1   
    10     4    14 ar  
    11     5     6 1   
    12     5    12 1   
    13     5    19 1   
    14     5    20 1   
    15     6     7 ar  
    16     6    11 ar  
    17     7     8 ar  
    18     7    21 1   
    19     8     9 ar  
    20     8    22 1   
    21     9    10 ar  
    22     9    23 1   
    23    10    11 ar  
    24    10    24 1   
    25    11    25 1   
    26    12    26 1   
    27    13    27 3   
    28    14    27 1   
@<TRIPOS>SUBSTRUCTURE
     1 K6R         1 TEMP              0 ****  ****    0 ROOT
