@<TRIPOS>MOLECULE
K6R
   27    28     1     0     0
SMALL
No Charge or Current Charge


@<TRIPOS>ATOM
      1 C1          28.9490   -31.1530   -15.5510 ca         1 K6R       0.521000
      2 C2          30.8220   -32.3610   -14.9460 ca         1 K6R       0.405900
      3 C3          30.7910   -31.8350   -13.6540 ca         1 K6R      -0.251000
      4 C4          29.7880   -30.9280   -13.3110 ca         1 K6R       0.424000
      5 C5          29.8020   -31.2260   -10.7950 c3         1 K6R       0.272100
      6 C6          28.6380   -32.2090   -10.7920 ca         1 K6R      -0.122300
      7 C7          28.8370   -33.5500   -11.1800 ca         1 K6R      -0.097500
      8 C8          27.7600   -34.4530   -11.1910 ca         1 K6R      -0.106000
      9 C9          26.4760   -34.0210   -10.8160 ca         1 K6R      -0.100000
     10 C10         26.2710   -32.6860   -10.4300 ca         1 K6R      -0.106000
     11 C11         27.3480   -31.7830   -10.4180 ca         1 K6R      -0.097500
     12 N1          29.7550   -30.4070   -12.0160 nu         1 K6R      -0.954200
     13 N2          26.9200   -28.9080   -13.7450 n1         1 K6R      -0.461000
     14 C           28.8410   -30.5720   -14.2800 ca         1 K6R      -0.181000
     15 N           29.9170   -32.0310   -15.8890 nb         1 K6R      -0.701000
     16 Cl          27.8070   -30.7840   -16.8450 cl         1 K6R      -0.150000
     17 H1          31.5950   -33.0700   -15.2400 h4         1 K6R       0.025100
     18 H2          31.5480   -32.1290   -12.9360 ha         1 K6R       0.136000
     19 H3          30.7520   -31.7740   -10.7330 h1         1 K6R       0.060700
     20 H4          29.7380   -30.5840    -9.9050 h1         1 K6R       0.060700
     21 H5          29.8270   -33.8930   -11.4750 ha         1 K6R       0.113000
     22 H6          27.9190   -35.4860   -11.4920 ha         1 K6R       0.117000
     23 H7          25.6420   -34.7200   -10.8260 ha         1 K6R       0.117000
     24 H8          25.2770   -32.3500   -10.1410 ha         1 K6R       0.117000
     25 H9          27.1790   -30.7490   -10.1220 ha         1 K6R       0.113000
     26 H10         29.1790   -29.5680   -11.9300 hn         1 K6R       0.507000
     27 C12         27.7780   -29.6590   -13.9920 cg         1 K6R       0.339000
@<TRIPOS>BOND
     1     1    14 ar  
     2     1    15 ar  
     3     1    16 1   
     4     2     3 ar  
     5     2    15 ar  
     6     2    17 1   
     7     3     4 ar  
     8     3    18 1   
     9     4    12 1   
    10     4    14 ar  
    11     5     6 1   
    12     5    12 1   
    13     5    19 1   
    14     5    20 1   
    15     6     7 ar  
    16     6    11 ar  
    17     7     8 ar  
    18     7    21 1   
    19     8     9 ar  
    20     8    22 1   
    21     9    10 ar  
    22     9    23 1   
    23    10    11 ar  
    24    10    24 1   
    25    11    25 1   
    26    12    26 1   
    27    13    27 3   
    28    14    27 1   
@<TRIPOS>SUBSTRUCTURE
     1 K6R         1 TEMP              0 ****  ****    0 ROOT
