@<TRIPOS>MOLECULE
K6S
   48    48     1     0     0
SMALL
abcg2


@<TRIPOS>ATOM
      1 N1          -0.1220    -0.0690     0.1000 ns         1 K6S      -0.501900
      2 C4           4.6850     0.0940    -0.0500 ca         1 K6S      -0.081300
      3 C5           3.4690    -0.5710    -0.1370 ca         1 K6S      -0.057000
      4 C6           2.2610     0.1210    -0.2130 ca         1 K6S      -0.149600
      5 C8           6.8570    -0.4380    -1.1850 c3         1 K6S      -0.085100
      6 C10          1.0000    -0.6760    -0.3180 c          1 K6S       0.612700
      7 C15         -7.2600     1.3230    -0.0130 c3         1 K6S      -0.096100
      8 C17         -6.6810    -0.7250     1.2850 c3         1 K6S      -0.096100
      9 C1           2.2750     1.5130    -0.2280 ca         1 K6S      -0.090000
     10 C11         -1.4190    -0.7130     0.0800 c3         1 K6S       0.099000
     11 C12         -2.5410     0.3130     0.0710 c3         1 K6S      -0.098400
     12 C14         -6.3430     0.1030     0.0370 c3         1 K6S       0.192200
     13 C16         -6.5760    -0.7440    -1.2150 c3         1 K6S      -0.096100
     14 C2           3.4840     2.1900    -0.1530 ca         1 K6S      -0.121000
     15 C3           4.6760     1.4890    -0.0600 ca         1 K6S      -0.085000
     16 C9           6.7370    -0.3590     1.3310 c3         1 K6S      -0.085100
     17 N2          -4.9670     0.6130     0.0410 n7         1 K6S      -0.868400
     18 O1           1.0090    -1.8170    -0.7640 o          1 K6S      -0.605100
     19 H12         -0.0460     0.7910     0.6200 hn         1 K6S       0.312500
     20 H4           3.4590    -1.6550    -0.1370 ha         1 K6S       0.134000
     21 H5           5.7230    -1.7430     0.0630 hc         1 K6S       0.053700
     22 H7           6.3320    -0.6940    -2.1060 hc         1 K6S       0.035867
     23 H8           7.1650     0.6070    -1.2540 hc         1 K6S       0.035867
     24 H6           7.7620    -1.0460    -1.1360 hc         1 K6S       0.035867
     25 H17         -3.9760    -1.0130    -0.7950 h1         1 K6S       0.032700
     26 H18         -3.9510    -1.0370     0.9600 h1         1 K6S       0.032700
     27 H21         -7.1070     1.9690     0.8550 hc         1 K6S       0.037589
     28 H22         -7.0750     1.9190    -0.9090 hc         1 K6S       0.037589
     29 H20         -8.3080     1.0210    -0.0180 hc         1 K6S       0.037589
     30 H28         -7.7160    -1.0700     1.2580 hc         1 K6S       0.037589
     31 H26         -6.0450    -1.6070     1.3710 hc         1 K6S       0.037589
     32 H27         -6.5560    -0.1300     2.1930 hc         1 K6S       0.037589
     33 H1           1.3590     2.0820    -0.3240 ha         1 K6S       0.111000
     34 H13         -1.4830    -1.3370    -0.8120 h1         1 K6S       0.052200
     35 H14         -1.5270    -1.3800     0.9420 h1         1 K6S       0.052200
     36 H15         -2.4570     0.9470    -0.8140 hc         1 K6S       0.049200
     37 H16         -2.4500     0.9680     0.9450 hc         1 K6S       0.049200
     38 H25         -7.6350    -0.9890    -1.3120 hc         1 K6S       0.037589
     39 H23         -6.2710    -0.2030    -2.1130 hc         1 K6S       0.037589
     40 H24         -6.0290    -1.6870    -1.1850 hc         1 K6S       0.037589
     41 H2           3.4950     3.2720    -0.1730 ha         1 K6S       0.114000
     42 H3           5.6070     2.0410     0.0010 ha         1 K6S       0.114000
     43 H11          6.1150    -0.5260     2.2110 hc         1 K6S       0.035867
     44 H9           7.6210    -0.9910     1.4210 hc         1 K6S       0.035867
     45 H10          7.0720     0.6800     1.3490 hc         1 K6S       0.035867
     46 H29         -4.8650     1.2330     0.8380 hn         1 K6S       0.405000
     47 C7           5.9790    -0.6800     0.0430 c3         1 K6S      -0.017400
     48 C13         -3.9010    -0.3700     0.0860 c3         1 K6S       0.166800
@<TRIPOS>BOND
     1     1     6 1   
     2     1    10 1   
     3     1    19 1   
     4     2     3 ar  
     5     2    15 ar  
     6     2    47 1   
     7     3     4 ar  
     8     3    20 1   
     9     4     6 1   
    10     4     9 ar  
    11     5    22 1   
    12     5    23 1   
    13     5    24 1   
    14     5    47 1   
    15     6    18 2   
    16     7    12 1   
    17     7    27 1   
    18     7    28 1   
    19     7    29 1   
    20     8    12 1   
    21     8    30 1   
    22     8    31 1   
    23     8    32 1   
    24     9    14 ar  
    25     9    33 1   
    26    10    11 1   
    27    10    34 1   
    28    10    35 1   
    29    11    36 1   
    30    11    37 1   
    31    11    48 1   
    32    12    13 1   
    33    12    17 1   
    34    13    38 1   
    35    13    39 1   
    36    13    40 1   
    37    14    15 ar  
    38    14    41 1   
    39    15    42 1   
    40    16    43 1   
    41    16    44 1   
    42    16    45 1   
    43    16    47 1   
    44    17    46 1   
    45    17    48 1   
    46    21    47 1   
    47    25    48 1   
    48    26    48 1   
@<TRIPOS>SUBSTRUCTURE
     1 K6S         1 TEMP              0 ****  ****    0 ROOT
