@<TRIPOS>MOLECULE
K6S
   48    48     1     0     0
SMALL
No Charge or Current Charge


@<TRIPOS>ATOM
      1 N1          -0.1380    -0.1880    -0.0130 ns         1 K6S      -0.501900
      2 C4           4.7800     0.1020    -0.0130 ca         1 K6S      -0.081300
      3 C5           3.5850    -0.6470    -0.0020 ca         1 K6S      -0.057000
      4 C6           2.3210    -0.0120    -0.0140 ca         1 K6S      -0.149600
      5 C8           6.9420    -0.3180    -1.2830 c3         1 K6S      -0.085100
      6 C10          1.0640    -0.8610    -0.0010 c          1 K6S       0.612700
      7 C15         -7.2890     1.4570     0.0020 c3         1 K6S      -0.096100
      8 C17         -6.7840    -0.6670     1.2820 c3         1 K6S      -0.096100
      9 C1           2.2750     1.4030    -0.0370 ca         1 K6S      -0.090000
     10 C11         -1.4490    -0.8370    -0.0040 c3         1 K6S       0.099000
     11 C12         -2.5930     0.1930     0.0120 c3         1 K6S      -0.098400
     12 C14         -6.4550     0.1550     0.0100 c3         1 K6S       0.192200
     13 C16         -6.7580    -0.6640    -1.2710 c3         1 K6S      -0.096100
     14 C2           3.4630     2.1520    -0.0470 ca         1 K6S      -0.121000
     15 C3           4.7080     1.5080    -0.0360 ca         1 K6S      -0.085000
     16 C9           6.9400    -0.2770     1.2740 c3         1 K6S      -0.085100
     17 N2          -5.0330     0.5710     0.0280 n7         1 K6S      -0.868400
     18 O1           1.1010    -2.0850     0.0180 o          1 K6S      -0.605100
     19 H12         -0.0980     0.8220    -0.0300 hn         1 K6S       0.312500
     20 H4           3.6400    -1.7330     0.0150 ha         1 K6S       0.134000
     21 H5           5.9620    -1.6980     0.0170 hc         1 K6S       0.053700
     22 H7           6.3610    -0.5850    -2.1730 hc         1 K6S       0.035867
     23 H8           7.2050     0.7440    -1.3500 hc         1 K6S       0.035867
     24 H6           7.8710    -0.9010    -1.2970 hc         1 K6S       0.035867
     25 H17         -4.0680    -1.1120    -0.8670 h1         1 K6S       0.032700
     26 H18         -4.0580    -1.1120     0.9100 h1         1 K6S       0.032700
     27 H21         -7.0860     2.0630     0.8940 hc         1 K6S       0.037589
     28 H22         -7.0600     2.0660    -0.8820 hc         1 K6S       0.037589
     29 H20         -8.3630     1.2320    -0.0140 hc         1 K6S       0.037589
     30 H28         -7.8590    -0.8790     1.3350 hc         1 K6S       0.037589
     31 H26         -6.2600    -1.6290     1.2870 hc         1 K6S       0.037589
     32 H27         -6.5050    -0.1180     2.1900 hc         1 K6S       0.037589
     33 H1           1.3300     1.9400    -0.0460 ha         1 K6S       0.111000
     34 H13         -1.5370    -1.4710    -0.8970 h1         1 K6S       0.052200
     35 H14         -1.5200    -1.4800     0.8840 h1         1 K6S       0.052200
     36 H15         -2.5080     0.8390    -0.8700 hc         1 K6S       0.049200
     37 H16         -2.4900     0.8320     0.8980 hc         1 K6S       0.049200
     38 H25         -7.8330    -0.8650    -1.3540 hc         1 K6S       0.037589
     39 H23         -6.4460    -0.1190    -2.1700 hc         1 K6S       0.037589
     40 H24         -6.2450    -1.6330    -1.2610 hc         1 K6S       0.037589
     41 H2           3.4170     3.2390    -0.0650 ha         1 K6S       0.114000
     42 H3           5.6170     2.1050    -0.0450 ha         1 K6S       0.114000
     43 H11          6.3560    -0.5150     2.1710 hc         1 K6S       0.035867
     44 H9           7.8690    -0.8590     1.3080 hc         1 K6S       0.035867
     45 H10          7.2030     0.7870     1.3070 hc         1 K6S       0.035867
     46 H29         -4.8900     1.1570     0.8570 hn         1 K6S       0.405000
     47 C7           6.1330    -0.6140    -0.0000 c3         1 K6S      -0.017400
     48 C13         -3.9820    -0.4710     0.0210 c3         1 K6S       0.166800
@<TRIPOS>BOND
     1     1     6 1   
     2     1    10 1   
     3     1    19 1   
     4     2     3 ar  
     5     2    15 ar  
     6     2    47 1   
     7     3     4 ar  
     8     3    20 1   
     9     4     6 1   
    10     4     9 ar  
    11     5    22 1   
    12     5    23 1   
    13     5    24 1   
    14     5    47 1   
    15     6    18 2   
    16     7    12 1   
    17     7    27 1   
    18     7    28 1   
    19     7    29 1   
    20     8    12 1   
    21     8    30 1   
    22     8    31 1   
    23     8    32 1   
    24     9    14 ar  
    25     9    33 1   
    26    10    11 1   
    27    10    34 1   
    28    10    35 1   
    29    11    36 1   
    30    11    37 1   
    31    11    48 1   
    32    12    13 1   
    33    12    17 1   
    34    13    38 1   
    35    13    39 1   
    36    13    40 1   
    37    14    15 ar  
    38    14    41 1   
    39    15    42 1   
    40    16    43 1   
    41    16    44 1   
    42    16    45 1   
    43    16    47 1   
    44    17    46 1   
    45    17    48 1   
    46    21    47 1   
    47    25    48 1   
    48    26    48 1   
@<TRIPOS>SUBSTRUCTURE
     1 K6S         1 TEMP              0 ****  ****    0 ROOT
