@<TRIPOS>MOLECULE
K6T
   38    40     1     0     0
SMALL
abcg2


@<TRIPOS>ATOM
      1 C10         16.7140    20.7360    -4.6480 ca         1 K6T      -0.109500
      2 C13         16.8180    19.9440    -1.9930 ca         1 K6T      -0.109500
      3 C17         20.1900    23.3860    -7.1580 ca         1 K6T      -0.238000
      4 C20         20.1570    22.4320    -9.7440 ca         1 K6T      -0.038000
      5 C21         19.6900    21.6160    -8.7230 ca         1 K6T      -0.199000
      6 S01         20.4120    18.9950    -7.0920 ss         1 K6T       0.292000
      7 C02         19.3280    19.9890    -6.1760 cc         1 K6T       0.203000
      8 C03         18.6660    19.2690    -5.2010 cd         1 K6T      -0.160000
      9 C04         19.0680    17.9050    -5.2060 cd         1 K6T      -0.058000
     10 C05         19.9860    17.6020    -6.1620 cc         1 K6T      -0.320900
     11 C06         20.5820    16.3210    -6.5430 ce         1 K6T       0.697800
     12 N07         20.2960    15.2690    -5.7130 nv         1 K6T      -1.061200
     13 N08         21.2720    16.2860    -7.6170 n2         1 K6T      -0.847100
     14 C09         17.7000    19.8300    -4.2460 ca         1 K6T      -0.003000
     15 C11         15.8010    21.2410    -3.7350 ca         1 K6T      -0.109500
     16 C12         15.8480    20.8480    -2.4040 ca         1 K6T      -0.113000
     17 C14         17.7360    19.4440    -2.9040 ca         1 K6T      -0.109500
     18 C16         19.7210    22.0980    -7.4140 ca         1 K6T       0.342000
     19 C18         20.6330    24.2100    -8.1930 ca         1 K6T       0.326000
     20 C19         20.6240    23.7110    -9.5020 ca         1 K6T      -0.205000
     21 N22         21.0370    25.5010    -7.9360 nv         1 K6T      -1.077000
     22 H1          16.6420    21.0310    -5.6870 ha         1 K6T       0.116000
     23 H2          16.8650    19.6300    -0.9590 ha         1 K6T       0.112000
     24 H4          20.1360    22.0620   -10.7610 ha         1 K6T       0.113000
     25 H5          19.2840    20.6420    -8.9580 ha         1 K6T       0.130000
     26 H6          18.6310    17.1760    -4.5370 ha         1 K6T       0.132000
     27 H7          20.1110    15.4740    -4.7450 hn         1 K6T       0.456500
     28 H8          20.8480    14.4350    -5.8370 hn         1 K6T       0.456500
     29 H9          21.6630    15.3640    -7.7900 hn         1 K6T       0.377400
     30 H10         15.0420    21.9370    -4.0690 ha         1 K6T       0.112000
     31 H11         15.1330    21.2410    -1.6930 ha         1 K6T       0.112000
     32 H12         18.5000    18.7540    -2.5660 ha         1 K6T       0.116000
     33 H14         20.9700    24.3290   -10.3210 ha         1 K6T       0.115000
     34 H15         21.3010    25.7030    -6.9860 hn         1 K6T       0.451000
     35 H16         21.6780    25.9030    -8.6000 hn         1 K6T       0.451000
     36 N15         19.2640    21.3450    -6.3380 nu         1 K6T      -0.963000
     37 H3          20.2220    23.7470    -6.1350 ha         1 K6T       0.112000
     38 H13         19.0200    21.8610    -5.5060 hn         1 K6T       0.501000
@<TRIPOS>BOND
     1     1    14 ar  
     2     1    15 ar  
     3     1    22 1   
     4     2    16 ar  
     5     2    17 ar  
     6     2    23 1   
     7     3    18 ar  
     8     3    19 ar  
     9     3    37 1   
    10     4     5 ar  
    11     4    20 ar  
    12     4    24 1   
    13     5    18 ar  
    14     5    25 1   
    15     6     7 1   
    16     6    10 1   
    17     7     8 2   
    18     7    36 1   
    19     8     9 1   
    20     8    14 1   
    21     9    10 2   
    22     9    26 1   
    23    10    11 1   
    24    11    12 1   
    25    11    13 2   
    26    12    27 1   
    27    12    28 1   
    28    13    29 1   
    29    14    17 ar  
    30    15    16 ar  
    31    15    30 1   
    32    16    31 1   
    33    17    32 1   
    34    18    36 1   
    35    19    20 ar  
    36    19    21 1   
    37    20    33 1   
    38    21    34 1   
    39    21    35 1   
    40    36    38 1   
@<TRIPOS>SUBSTRUCTURE
     1 K6T         1 TEMP              0 ****  ****    0 ROOT
