@<TRIPOS>MOLECULE
K6T
   38    40     1     0     0
SMALL
No Charge or Current Charge


@<TRIPOS>ATOM
      1 C10         16.8590    20.8820    -4.5860 ca         1 K6T      -0.109500
      2 C13         16.7120    19.7560    -2.0220 ca         1 K6T      -0.109500
      3 C17         20.1330    23.4140    -7.2060 ca         1 K6T      -0.238000
      4 C20         20.1820    22.5750    -9.8850 ca         1 K6T      -0.038000
      5 C21         19.6820    21.7230    -8.8860 ca         1 K6T      -0.199000
      6 S01         20.3480    18.8800    -7.2330 ss         1 K6T       0.292000
      7 C02         19.2890    19.9550    -6.2930 cc         1 K6T       0.203000
      8 C03         18.7400    19.2850    -5.2110 cd         1 K6T      -0.160000
      9 C04         19.1470    17.9110    -5.1780 cd         1 K6T      -0.058000
     10 C05         20.0220    17.5260    -6.1660 cc         1 K6T      -0.320900
     11 C06         20.5960    16.2270    -6.4370 ce         1 K6T       0.697800
     12 N07         20.5310    15.2790    -5.4910 nv         1 K6T      -1.061200
     13 N08         21.0320    15.9090    -7.5800 n2         1 K6T      -0.847100
     14 C09         17.7440    19.8290    -4.2490 ca         1 K6T      -0.003000
     15 C11         15.9260    21.3680    -3.6540 ca         1 K6T      -0.109500
     16 C12         15.8540    20.8100    -2.3690 ca         1 K6T      -0.113000
     17 C14         17.6430    19.2670    -2.9550 ca         1 K6T      -0.109500
     18 C16         19.6680    22.1390    -7.5450 ca         1 K6T       0.342000
     19 C18         20.6330    24.2630    -8.1980 ca         1 K6T       0.326000
     20 C19         20.6610    23.8470    -9.5340 ca         1 K6T      -0.205000
     21 N22         21.0940    25.5030    -7.8610 nv         1 K6T      -1.077000
     22 H1          16.8450    21.3030    -5.5860 ha         1 K6T       0.116000
     23 H2          16.6580    19.3180    -1.0280 ha         1 K6T       0.112000
     24 H4          20.1920    22.2520   -10.9250 ha         1 K6T       0.113000
     25 H5          19.2900    20.7490    -9.1610 ha         1 K6T       0.130000
     26 H6          18.7720    17.2080    -4.4400 ha         1 K6T       0.132000
     27 H7          20.3420    15.6320    -4.5610 hn         1 K6T       0.456500
     28 H8          21.2350    14.5530    -5.5410 hn         1 K6T       0.456500
     29 H9          21.0900    14.8850    -7.6140 hn         1 K6T       0.377400
     30 H10         15.2490    22.1730    -3.9330 ha         1 K6T       0.112000
     31 H11         15.1320    21.1870    -1.6490 ha         1 K6T       0.112000
     32 H12         18.3070    18.4640    -2.6500 ha         1 K6T       0.116000
     33 H14         21.0470    24.5080   -10.3060 ha         1 K6T       0.115000
     34 H15         21.2190    25.7440    -6.8800 hn         1 K6T       0.451000
     35 H16         21.5980    26.0590    -8.5490 hn         1 K6T       0.451000
     36 N15         19.1670    21.3170    -6.5420 nu         1 K6T      -0.963000
     37 H3          20.1130    23.7410    -6.1710 ha         1 K6T       0.112000
     38 H13         18.8390    21.8270    -5.7230 hn         1 K6T       0.501000
@<TRIPOS>BOND
     1     1    14 ar  
     2     1    15 ar  
     3     1    22 1   
     4     2    16 ar  
     5     2    17 ar  
     6     2    23 1   
     7     3    18 ar  
     8     3    19 ar  
     9     3    37 1   
    10     4     5 ar  
    11     4    20 ar  
    12     4    24 1   
    13     5    18 ar  
    14     5    25 1   
    15     6     7 1   
    16     6    10 1   
    17     7     8 2   
    18     7    36 1   
    19     8     9 1   
    20     8    14 1   
    21     9    10 2   
    22     9    26 1   
    23    10    11 1   
    24    11    12 1   
    25    11    13 2   
    26    12    27 1   
    27    12    28 1   
    28    13    29 1   
    29    14    17 ar  
    30    15    16 ar  
    31    15    30 1   
    32    16    31 1   
    33    17    32 1   
    34    18    36 1   
    35    19    20 ar  
    36    19    21 1   
    37    20    33 1   
    38    21    34 1   
    39    21    35 1   
    40    36    38 1   
@<TRIPOS>SUBSTRUCTURE
     1 K6T         1 TEMP              0 ****  ****    0 ROOT
