@<TRIPOS>MOLECULE
K6U
   21    22     1     0     0
SMALL
No Charge or Current Charge


@<TRIPOS>ATOM
      1 N1          11.0430   -41.3580   -10.8390 nc         1 K6U      -0.373000
      2 C4          14.1540   -38.4610   -13.7750 ca         1 K6U      -0.046000
      3 C5          14.1170   -38.6860   -12.3930 ca         1 K6U      -0.158000
      4 C6          13.0660   -39.4240   -11.8260 ca         1 K6U      -0.026000
      5 C7          12.0240   -39.9330   -12.6340 ca         1 K6U      -0.185500
      6 C8          10.9510   -40.7300   -12.0030 cd         1 K6U       0.493500
      7 C1          11.0820   -40.1390   -16.2650 c3         1 K6U       0.147900
      8 C2          12.0790   -39.7310   -14.0350 ca         1 K6U       0.182100
      9 C3          13.1430   -38.9860   -14.5940 ca         1 K6U      -0.211000
     10 C9           9.0200   -41.3990   -11.5870 cd         1 K6U       0.398900
     11 N2           9.7740   -41.8230   -10.5780 nc         1 K6U      -0.359000
     12 O1          11.1000   -40.2910   -14.8350 os         1 K6U      -0.330100
     13 O2           9.7010   -40.6910   -12.5210 os         1 K6U      -0.260000
     14 H5          14.9710   -37.8900   -14.2120 ha         1 K6U       0.116000
     15 H6          14.9060   -38.2890   -11.7570 ha         1 K6U       0.124000
     16 H7          13.0580   -39.5870   -10.7500 ha         1 K6U       0.138000
     17 H3          10.2170   -40.6620   -16.6910 h1         1 K6U       0.045033
     18 H2          11.0100   -39.0800   -16.5450 h1         1 K6U       0.045033
     19 H1          11.9900   -40.5620   -16.7140 h1         1 K6U       0.045033
     20 H4          13.2090   -38.8090   -15.6630 ha         1 K6U       0.122000
     21 H8           7.9600   -41.5640   -11.7330 h5         1 K6U       0.089100
@<TRIPOS>BOND
     1     1     6 2   
     2     1    11 1   
     3     2     3 ar  
     4     2     9 ar  
     5     2    14 1   
     6     3     4 ar  
     7     3    15 1   
     8     4     5 ar  
     9     4    16 1   
    10     5     6 1   
    11     5     8 ar  
    12     6    13 1   
    13     7    12 1   
    14     7    17 1   
    15     7    18 1   
    16     7    19 1   
    17     8     9 ar  
    18     8    12 1   
    19     9    20 1   
    20    10    11 2   
    21    10    13 1   
    22    10    21 1   
@<TRIPOS>SUBSTRUCTURE
     1 K6U         1 TEMP              0 ****  ****    0 ROOT
