@<TRIPOS>MOLECULE
K6U
   21    22     1     0     0
SMALL
abcg2


@<TRIPOS>ATOM
      1 N1          11.0450   -41.3370   -10.9160 nc         1 K6U      -0.373000
      2 C4          14.1360   -38.4990   -13.7830 ca         1 K6U      -0.046000
      3 C5          14.1030   -38.7040   -12.4110 ca         1 K6U      -0.158000
      4 C6          13.0470   -39.4100   -11.8630 ca         1 K6U      -0.026000
      5 C7          12.0250   -39.9160   -12.6650 ca         1 K6U      -0.185500
      6 C8          10.9610   -40.6670   -12.0160 cd         1 K6U       0.493500
      7 C1          11.1100   -40.1200   -16.1880 c3         1 K6U       0.147900
      8 C2          12.0720   -39.7140   -14.0560 ca         1 K6U       0.182100
      9 C3          13.1350   -38.9970   -14.6030 ca         1 K6U      -0.211000
     10 C9           9.0420   -41.4220   -11.6070 cd         1 K6U       0.398900
     11 N2           9.7930   -41.8230   -10.6510 nc         1 K6U      -0.359000
     12 O1          11.0830   -40.2520   -14.7780 os         1 K6U      -0.330100
     13 O2           9.7100   -40.6880   -12.5030 os         1 K6U      -0.260000
     14 H5          14.9510   -37.9440   -14.2300 ha         1 K6U       0.116000
     15 H6          14.8840   -38.3120   -11.7750 ha         1 K6U       0.124000
     16 H7          13.0010   -39.5670   -10.7930 ha         1 K6U       0.138000
     17 H3          10.2310   -40.6420   -16.5590 h1         1 K6U       0.045033
     18 H2          11.0570   -39.0740   -16.5000 h1         1 K6U       0.045033
     19 H1          12.0020   -40.5770   -16.6220 h1         1 K6U       0.045033
     20 H4          13.1970   -38.8250   -15.6680 ha         1 K6U       0.122000
     21 H8           7.9900   -41.6060   -11.7620 h5         1 K6U       0.089100
@<TRIPOS>BOND
     1     1     6 2   
     2     1    11 1   
     3     2     3 ar  
     4     2     9 ar  
     5     2    14 1   
     6     3     4 ar  
     7     3    15 1   
     8     4     5 ar  
     9     4    16 1   
    10     5     6 1   
    11     5     8 ar  
    12     6    13 1   
    13     7    12 1   
    14     7    17 1   
    15     7    18 1   
    16     7    19 1   
    17     8     9 ar  
    18     8    12 1   
    19     9    20 1   
    20    10    11 2   
    21    10    13 1   
    22    10    21 1   
@<TRIPOS>SUBSTRUCTURE
     1 K6U         1 TEMP              0 ****  ****    0 ROOT
