@<TRIPOS>MOLECULE
K6V
   25    24     1     0     0
SMALL
bcc


@<TRIPOS>ATOM
      1 C02          2.8600    -0.5080    -0.5960 c3         1 K6V       0.122400
      2 C03          1.7900     0.5110    -0.2420 c3         1 K6V       0.114700
      3 C04          2.1740     1.3870     0.9460 c3         1 K6V      -0.103100
      4 C08         -1.8370    -0.6260    -0.1230 c3         1 K6V      -0.157400
      5 C09         -3.1330     0.1350     0.1220 c3         1 K6V      -0.066400
      6 C10         -4.3110    -0.8040     0.3360 c3         1 K6V      -0.091100
      7 N05          0.5290    -0.1700    -0.0130 ns         1 K6V      -0.574900
      8 O01          3.0410    -1.3830     0.4950 oh         1 K6V      -0.605800
      9 O07         -0.7970     1.3150    -1.0790 o          1 K6V      -0.613100
     10 H021         2.5500    -1.0480    -1.4990 h1         1 K6V       0.028700
     11 H022         3.7840     0.0310    -0.8420 h1         1 K6V       0.028700
     12 H031         1.6630     1.1470    -1.1200 h1         1 K6V       0.079700
     13 H043         2.2610     0.8040     1.8630 hc         1 K6V       0.044367
     14 H041         3.1300     1.8820     0.7670 hc         1 K6V       0.044367
     15 H042         1.4220     2.1590     1.1060 hc         1 K6V       0.044367
     16 H082        -1.9680    -1.3020    -0.9760 hc         1 K6V       0.053700
     17 H081        -1.6090    -1.2670     0.7320 hc         1 K6V       0.053700
     18 H091        -3.0180     0.7860     0.9930 hc         1 K6V       0.053700
     19 H092        -3.3340     0.7910    -0.7270 hc         1 K6V       0.053700
     20 H102        -4.4630    -1.4480    -0.5330 hc         1 K6V       0.032367
     21 H101        -4.1560    -1.4500     1.2010 hc         1 K6V       0.032367
     22 H103        -5.2350    -0.2480     0.5000 hc         1 K6V       0.032367
     23 H051         0.5550    -1.0050     0.5510 hn         1 K6V       0.320500
     24 H011         3.5650    -2.1330     0.2000 ho         1 K6V       0.406000
     25 C06         -0.6620     0.2760    -0.4440 c          1 K6V       0.666100
@<TRIPOS>BOND
     1     1     2 1   
     2     1     8 1   
     3     1    10 1   
     4     1    11 1   
     5     2     3 1   
     6     2     7 1   
     7     2    12 1   
     8     3    13 1   
     9     3    14 1   
    10     3    15 1   
    11     4     5 1   
    12     4    16 1   
    13     4    17 1   
    14     4    25 1   
    15     5     6 1   
    16     5    18 1   
    17     5    19 1   
    18     6    20 1   
    19     6    21 1   
    20     6    22 1   
    21     7    23 1   
    22     7    25 1   
    23     8    24 1   
    24     9    25 2   
@<TRIPOS>SUBSTRUCTURE
     1 K6V         1 TEMP              0 ****  ****    0 ROOT
