@<TRIPOS>MOLECULE
K6V
   25    24     1     0     0
SMALL
No Charge or Current Charge


@<TRIPOS>ATOM
      1 C02          2.9290    -0.5880    -0.2930 c3         1 K6V       0.145600
      2 C03          1.7780     0.4550    -0.3550 c3         1 K6V       0.114700
      3 C04          1.8940     1.5410     0.7370 c3         1 K6V      -0.103100
      4 C08         -1.9270    -0.6050    -0.6310 c3         1 K6V      -0.157400
      5 C09         -2.8990     0.0430     0.3830 c3         1 K6V      -0.066400
      6 C10         -4.1550    -0.8100     0.6430 c3         1 K6V      -0.091100
      7 N05          0.4690    -0.2040    -0.2880 ns         1 K6V      -0.507900
      8 O01          2.8040    -1.4360     0.8640 oh         1 K6V      -0.668000
      9 O07         -0.7190     1.2920    -1.5280 o          1 K6V      -0.613100
     10 H021         2.8980    -1.1980    -1.2060 h1         1 K6V       0.028700
     11 H022         3.8930    -0.0620    -0.2820 h1         1 K6V       0.028700
     12 H031         1.8580     0.9570    -1.3300 h1         1 K6V       0.079700
     13 H043         1.8030     1.1020     1.7370 hc         1 K6V       0.044367
     14 H041         2.8620     2.0510     0.6710 hc         1 K6V       0.044367
     15 H042         1.1060     2.2930     0.6190 hc         1 K6V       0.044367
     16 H082        -2.4520    -0.7270    -1.5860 hc         1 K6V       0.053700
     17 H081        -1.6270    -1.5870    -0.2440 hc         1 K6V       0.053700
     18 H091        -2.3760     0.2080     1.3340 hc         1 K6V       0.053700
     19 H092        -3.2080     1.0290     0.0140 hc         1 K6V       0.053700
     20 H102        -4.7190    -0.9640    -0.2850 hc         1 K6V       0.032367
     21 H101        -3.8810    -1.7920     1.0490 hc         1 K6V       0.032367
     22 H103        -4.8130    -0.3120     1.3650 hc         1 K6V       0.032367
     23 H051         0.4050    -1.0660     0.2410 hn         1 K6V       0.320500
     24 H011         3.5680    -2.0560     0.8490 ho         1 K6V       0.445000
     25 C06         -0.6890     0.2680    -0.8600 c          1 K6V       0.599100
@<TRIPOS>BOND
     1     1     2 1   
     2     1     8 1   
     3     1    10 1   
     4     1    11 1   
     5     2     3 1   
     6     2     7 1   
     7     2    12 1   
     8     3    13 1   
     9     3    14 1   
    10     3    15 1   
    11     4     5 1   
    12     4    16 1   
    13     4    17 1   
    14     4    25 1   
    15     5     6 1   
    16     5    18 1   
    17     5    19 1   
    18     6    20 1   
    19     6    21 1   
    20     6    22 1   
    21     7    23 1   
    22     7    25 1   
    23     8    24 1   
    24     9    25 2   
@<TRIPOS>SUBSTRUCTURE
     1 K6V         1 TEMP              0 ****  ****    0 ROOT
