@<TRIPOS>MOLECULE
K6W
   37    39     1     0     0
SMALL
abcg2


@<TRIPOS>ATOM
      1 C10         20.1940    22.4570    -7.4610 ca         1 K6W      -0.101000
      2 C13         19.5780    22.3510   -10.1620 ca         1 K6W      -0.110500
      3 C17         16.2190    20.1960    -4.6000 ca         1 K6W      -0.099000
      4 C20         16.8810    19.7300    -1.9480 ca         1 K6W      -0.110000
      5 C21         17.8290    20.2450    -2.8240 ca         1 K6W      -0.099000
      6 C02         19.1540    19.9260    -5.9610 cc         1 K6W      -0.183300
      7 C03         19.7050    20.0140    -7.2160 cd         1 K6W      -0.071000
      8 C04         20.1750    18.7530    -7.6810 cd         1 K6W      -0.085000
      9 C05         19.9850    17.7390    -6.7900 cc         1 K6W      -0.347900
     10 C06         20.3370    16.3140    -6.9300 ce         1 K6W       0.695800
     11 C09         19.7940    21.2430    -8.0210 ca         1 K6W      -0.016000
     12 C11         20.2750    23.6040    -8.2380 ca         1 K6W      -0.110500
     13 C12         19.9670    23.5560    -9.5910 ca         1 K6W      -0.107000
     14 C14         19.4920    21.2060    -9.3840 ca         1 K6W      -0.101000
     15 C16         17.5080    20.4820    -4.1560 ca         1 K6W      -0.100300
     16 C18         15.2700    19.6840    -3.7280 ca         1 K6W      -0.110000
     17 C19         15.6000    19.4480    -2.3980 ca         1 K6W      -0.104000
     18 N07         21.3500    16.0740    -7.8100 nv         1 K6W      -1.028200
     19 N08         19.7470    15.3480    -6.3350 n2         1 K6W      -0.848100
     20 S01         19.2170    18.3160    -5.3620 ss         1 K6W       0.256000
     21 H101        20.4680    22.5070    -6.4150 ha         1 K6W       0.114500
     22 H131        19.3370    22.3020   -11.2160 ha         1 K6W       0.113500
     23 H152        19.3330    21.5140    -4.5510 hc         1 K6W       0.065700
     24 H151        18.1040    21.7550    -5.7740 hc         1 K6W       0.065700
     25 H201        17.1450    19.5510    -0.9130 ha         1 K6W       0.114500
     26 H211        18.8280    20.4660    -2.4650 ha         1 K6W       0.115000
     27 H041        20.6340    18.6150    -8.6510 ha         1 K6W       0.141000
     28 H111        20.5900    24.5350    -7.7850 ha         1 K6W       0.113500
     29 H121        20.0310    24.4500   -10.1970 ha         1 K6W       0.113000
     30 H141        19.1730    20.2760    -9.8380 ha         1 K6W       0.114500
     31 H181        14.2700    19.4710    -4.0840 ha         1 K6W       0.114500
     32 H191        14.8580    19.0500    -1.7170 ha         1 K6W       0.114000
     33 H071        21.6930    15.1270    -7.8400 hn         1 K6W       0.469500
     34 H1          22.0610    16.7760    -7.9260 hn         1 K6W       0.469500
     35 H081        18.9420    15.6700    -5.8100 hn         1 K6W       0.389400
     36 C15         18.5460    21.0050    -5.1150 c3         1 K6W       0.035200
     37 H171        15.9570    20.3770    -5.6360 ha         1 K6W       0.115000
@<TRIPOS>BOND
     1     1    11 ar  
     2     1    12 ar  
     3     1    21 1   
     4     2    13 ar  
     5     2    14 ar  
     6     2    22 1   
     7     3    15 ar  
     8     3    16 ar  
     9     3    37 1   
    10     4     5 ar  
    11     4    17 ar  
    12     4    25 1   
    13     5    15 ar  
    14     5    26 1   
    15     6     7 2   
    16     6    20 1   
    17     6    36 1   
    18     7     8 1   
    19     7    11 1   
    20     8     9 2   
    21     8    27 1   
    22     9    10 1   
    23     9    20 1   
    24    10    18 1   
    25    10    19 2   
    26    11    14 ar  
    27    12    13 ar  
    28    12    28 1   
    29    13    29 1   
    30    14    30 1   
    31    15    36 1   
    32    16    17 ar  
    33    16    31 1   
    34    17    32 1   
    35    18    33 1   
    36    18    34 1   
    37    19    35 1   
    38    23    36 1   
    39    24    36 1   
@<TRIPOS>SUBSTRUCTURE
     1 K6W         1 TEMP              0 ****  ****    0 ROOT
