@<TRIPOS>MOLECULE
K6W
   37    39     1     0     0
SMALL
No Charge or Current Charge


@<TRIPOS>ATOM
      1 C10         19.9810    22.5350    -7.4660 ca         1 K6W      -0.101000
      2 C13         19.8740    22.3250   -10.2600 ca         1 K6W      -0.110500
      3 C17         16.2460    20.0940    -4.5470 ca         1 K6W      -0.099000
      4 C20         16.8630    19.7870    -1.8240 ca         1 K6W      -0.110000
      5 C21         17.8260    20.3020    -2.7090 ca         1 K6W      -0.099000
      6 C02         19.1970    19.9460    -5.9210 cc         1 K6W      -0.183300
      7 C03         19.6390    20.0260    -7.2330 cd         1 K6W      -0.071000
      8 C04         20.0860    18.7540    -7.7120 cd         1 K6W      -0.085000
      9 C05         19.9790    17.7140    -6.8200 cc         1 K6W      -0.347900
     10 C06         20.3290    16.3220    -6.9960 ce         1 K6W       0.695800
     11 C09         19.7770    21.2620    -8.0490 ca         1 K6W      -0.016000
     12 C11         20.1170    23.6830    -8.2660 ca         1 K6W      -0.110500
     13 C12         20.0590    23.5810    -9.6630 ca         1 K6W      -0.107000
     14 C14         19.7410    21.1770    -9.4600 ca         1 K6W      -0.101000
     15 C16         17.5230    20.4590    -4.0770 ca         1 K6W      -0.100300
     16 C18         15.2830    19.5790    -3.6620 ca         1 K6W      -0.110000
     17 C19         15.5920    19.4260    -2.3000 ca         1 K6W      -0.104000
     18 N07         21.1920    15.9880    -7.9610 nv         1 K6W      -1.028200
     19 N08         19.7390    15.3920    -6.3760 n2         1 K6W      -0.848100
     20 S01         19.3010    18.2920    -5.3100 ss         1 K6W       0.256000
     21 H101        20.0820    22.6470    -6.3930 ha         1 K6W       0.114500
     22 H131        19.8310    22.2400   -11.3430 ha         1 K6W       0.113500
     23 H152        19.3500    21.5340    -4.4890 hc         1 K6W       0.065700
     24 H151        18.0780    21.7630    -5.6750 hc         1 K6W       0.065700
     25 H201        17.1030    19.6680    -0.7700 ha         1 K6W       0.114500
     26 H211        18.8090    20.5760    -2.3320 ha         1 K6W       0.115000
     27 H041        20.5000    18.6150    -8.7060 ha         1 K6W       0.141000
     28 H111        20.2790    24.6530    -7.7990 ha         1 K6W       0.113500
     29 H121        20.1650    24.4700   -10.2820 ha         1 K6W       0.113000
     30 H141        19.5780    20.2220    -9.9510 ha         1 K6W       0.114500
     31 H181        14.3000    19.2980    -4.0320 ha         1 K6W       0.114500
     32 H191        14.8470    19.0270    -1.6140 ha         1 K6W       0.114000
     33 H071        21.5440    15.0430    -7.8800 hn         1 K6W       0.469500
     34 H1          21.8720    16.6990    -8.1970 hn         1 K6W       0.469500
     35 H081        18.9980    15.8200    -5.8100 hn         1 K6W       0.389400
     36 C15         18.5650    21.0080    -5.0460 c3         1 K6W       0.035200
     37 H171        16.0020    20.2060    -5.6020 ha         1 K6W       0.115000
@<TRIPOS>BOND
     1     1    11 ar  
     2     1    12 ar  
     3     1    21 1   
     4     2    13 ar  
     5     2    14 ar  
     6     2    22 1   
     7     3    15 ar  
     8     3    16 ar  
     9     3    37 1   
    10     4     5 ar  
    11     4    17 ar  
    12     4    25 1   
    13     5    15 ar  
    14     5    26 1   
    15     6     7 2   
    16     6    20 1   
    17     6    36 1   
    18     7     8 1   
    19     7    11 1   
    20     8     9 2   
    21     8    27 1   
    22     9    10 1   
    23     9    20 1   
    24    10    18 1   
    25    10    19 2   
    26    11    14 ar  
    27    12    13 ar  
    28    12    28 1   
    29    13    29 1   
    30    14    30 1   
    31    15    36 1   
    32    16    17 ar  
    33    16    31 1   
    34    17    32 1   
    35    18    33 1   
    36    18    34 1   
    37    19    35 1   
    38    23    36 1   
    39    24    36 1   
@<TRIPOS>SUBSTRUCTURE
     1 K6W         1 TEMP              0 ****  ****    0 ROOT
