@<TRIPOS>MOLECULE
K6X
   15    16     1     0     0
SMALL
bcc


@<TRIPOS>ATOM
      1 C1           0.8450     0.5280    -0.0100 ca         1 K6X       0.082100
      2 C2           1.1020    -0.8500    -0.0240 ca         1 K6X      -0.186900
      3 C3           0.0200    -1.7460    -0.0250 ca         1 K6X      -0.016200
      4 C4          -1.3100    -1.3190    -0.0120 ca         1 K6X      -0.026900
      5 C5          -1.5460     0.0380     0.0030 ca         1 K6X       0.051100
      6 C6          -0.4670     0.9650     0.0020 ca         1 K6X      -0.031900
      7 BR13         2.2680     1.7330    -0.0100 br         1 K6X      -0.019100
      8 BR15        -0.8360     2.8000     0.0200 br         1 K6X      -0.025100
      9 BR17        -3.3080     0.6550     0.0220 br         1 K6X      -0.019100
     10 BR19        -2.6580    -2.6060    -0.0160 br         1 K6X      -0.038100
     11 N21          0.5430    -2.9860    -0.0390 na         1 K6X       0.015900
     12 N23          1.8710    -2.9690    -0.0470 nc         1 K6X      -0.469100
     13 C25          2.2330    -1.7180    -0.0380 cd         1 K6X       0.314900
     14 BR28         4.0410    -1.3020    -0.0460 br         1 K6X       0.022700
     15 HN21         0.0600    -3.8710    -0.0410 hn         1 K6X       0.346700
@<TRIPOS>BOND
     1     1     2 ar  
     2     1     6 ar  
     3     1     7 1   
     4     2     3 ar  
     5     2    13 1   
     6     3     4 ar  
     7     3    11 1   
     8     4     5 ar  
     9     4    10 1   
    10     5     6 ar  
    11     5     9 1   
    12     6     8 1   
    13    11    12 1   
    14    11    15 1   
    15    12    13 2   
    16    13    14 1   
@<TRIPOS>SUBSTRUCTURE
     1 K6X         1 TEMP              0 ****  ****    0 ROOT
