@<TRIPOS>MOLECULE
K6X
   15    16     1     0     0
SMALL
No Charge or Current Charge


@<TRIPOS>ATOM
      1 C1           0.8630     0.5120    -0.0100 ca         1 K6X       0.082100
      2 C2           1.0740    -0.8820    -0.0240 ca         1 K6X      -0.186900
      3 C3           0.0330    -1.7590    -0.0240 ca         1 K6X      -0.016200
      4 C4          -1.3030    -1.3370    -0.0120 ca         1 K6X      -0.026900
      5 C5          -1.5590     0.0540     0.0020 ca         1 K6X       0.051100
      6 C6          -0.4770     0.9770     0.0030 ca         1 K6X      -0.031900
      7 Br13         2.3250     1.7620    -0.0090 br         1 K6X      -0.019100
      8 Br15        -0.8340     2.8700     0.0210 br         1 K6X      -0.025100
      9 Br17        -3.3760     0.6890     0.0200 br         1 K6X      -0.019100
     10 Br19        -2.7220    -2.6320    -0.0130 br         1 K6X      -0.038100
     11 N21          0.5370    -3.0440    -0.0390 na         1 K6X      -0.034400
     12 N23          1.9400    -3.0190    -0.0480 nc         1 K6X      -0.469100
     13 C25          2.2660    -1.7170    -0.0390 cd         1 K6X       0.314900
     14 Br28         4.0890    -1.2120    -0.0470 br         1 K6X       0.022700
     15 HN21         0.0020    -3.9110    -0.0430 hn         1 K6X       0.397000
@<TRIPOS>BOND
     1     1     2 ar  
     2     1     6 ar  
     3     1     7 1   
     4     2     3 ar  
     5     2    13 1   
     6     3     4 ar  
     7     3    11 1   
     8     4     5 ar  
     9     4    10 1   
    10     5     6 ar  
    11     5     9 1   
    12     6     8 1   
    13    11    12 1   
    14    11    15 1   
    15    12    13 2   
    16    13    14 1   
@<TRIPOS>SUBSTRUCTURE
     1 K6X         1 TEMP              0 ****  ****    0 ROOT
