@<TRIPOS>MOLECULE
K6Y
   56    60     1     0     0
SMALL
No Charge or Current Charge


@<TRIPOS>ATOM
      1 C4          12.5270    45.7850    -5.0120 cc         1 K6Y       0.290300
      2 C14         18.8620    42.0480    -6.8370 ca         1 K6Y      -0.018300
      3 C11         16.5740    43.1830    -5.6120 ca         1 K6Y      -0.012000
      4 C7          13.2040    44.8890    -3.9660 c3         1 K6Y       0.241800
      5 C8          12.2560    43.7830    -3.4400 c3         1 K6Y      -0.113100
      6 C9          14.4160    44.2670    -4.5170 c1         1 K6Y      -0.132100
      7 C10         15.4070    43.7670    -5.0120 cg         1 K6Y      -0.075000
      8 C12         16.7240    43.2110    -7.0080 ca         1 K6Y      -0.027000
      9 C13         17.8580    42.6480    -7.6540 ca         1 K6Y      -0.134500
     10 C3          12.9820    47.0870    -5.3070 cc         1 K6Y      -0.226000
     11 C15         18.6980    42.0250    -5.4360 ca         1 K6Y      -0.156000
     12 C16         17.5700    42.5820    -4.8270 ca         1 K6Y       0.200000
     13 C18         20.1550    41.4340    -7.3780 cy         1 K6Y      -0.049400
     14 C19         20.9430    42.2970    -8.4110 cy         1 K6Y      -0.092900
     15 C2          12.1580    47.5440    -6.2770 cd         1 K6Y       0.189300
     16 C20         20.1070    41.5720    -9.5110 cy         1 K6Y       0.057300
     17 C21         20.0270    40.3720    -8.5200 cy         1 K6Y      -0.092900
     18 C23         17.9080    42.7160    -9.1360 cc         1 K6Y       0.483000
     19 C25         17.2750    43.1330   -11.1920 cd         1 K6Y       0.201500
     20 C26         18.4200    42.3250   -11.3030 cc         1 K6Y      -0.174600
     21 C27         19.0440    41.7070   -12.5350 c          1 K6Y       0.621700
     22 C30         18.9350    41.3610   -15.0200 c3         1 K6Y       0.094300
     23 C31         16.3950    43.7590   -12.2740 c          1 K6Y       0.546600
     24 F17         17.4570    42.5360    -3.4780 f          1 K6Y      -0.169000
     25 N22         18.8650    42.1780    -9.9730 na         1 K6Y      -0.116500
     26 N24         16.9810    43.3200    -9.8460 nd         1 K6Y      -0.691000
     27 N29         18.4550    41.9170   -13.7520 ns         1 K6Y      -0.485900
     28 N33         15.3280    44.4330   -11.7860 nt         1 K6Y      -0.572000
     29 N5          11.4810    45.4320    -5.7530 nd         1 K6Y      -0.339300
     30 O28         20.0350    40.9950   -12.4940 o          1 K6Y      -0.635100
     31 O32         16.5460    43.7400   -13.4830 o          1 K6Y      -0.650100
     32 O34         13.6010    45.6610    -2.8230 oh         1 K6Y      -0.644000
     33 O6          11.2310    46.5840    -6.5830 os         1 K6Y      -0.098700
     34 H1          12.7400    43.1780    -2.6630 hc         1 K6Y       0.054700
     35 H2          11.3490    44.2240    -3.0090 hc         1 K6Y       0.054700
     36 H3          11.9520    43.1070    -4.2490 hc         1 K6Y       0.054700
     37 H4          15.9350    43.6790    -7.5940 ha         1 K6Y       0.151000
     38 H5          13.8200    47.5950    -4.8460 ha         1 K6Y       0.157000
     39 H6          12.3380    48.7170    -8.0710 hc         1 K6Y       0.063700
     40 H7          11.1530    49.3390    -6.9070 hc         1 K6Y       0.063700
     41 H8          12.8880    49.5440    -6.6020 hc         1 K6Y       0.063700
     42 H9          19.4560    41.5720    -4.8020 ha         1 K6Y       0.136000
     43 H10         20.8010    41.0810    -6.5660 hc         1 K6Y       0.076700
     44 H11         22.0180    42.0840    -8.4510 hc         1 K6Y       0.074700
     45 H12         20.8090    43.3820    -8.3380 hc         1 K6Y       0.074700
     46 H13         20.7310    41.3700   -10.3800 h1         1 K6Y       0.127700
     47 H14         19.0970    39.7940    -8.5370 hc         1 K6Y       0.074700
     48 H15         20.8710    39.6750    -8.5890 hc         1 K6Y       0.074700
     49 H16         18.2840    41.6990   -15.8370 h1         1 K6Y       0.042367
     50 H17         19.9600    41.7040   -15.2110 h1         1 K6Y       0.042367
     51 H18         18.9180    40.2650   -14.9750 h1         1 K6Y       0.042367
     52 H19         17.6440    42.5220   -13.7770 hn         1 K6Y       0.370500
     53 H20         14.6900    44.8910   -12.4180 hn         1 K6Y       0.333000
     54 H21         15.1940    44.4700   -10.7850 hn         1 K6Y       0.333000
     55 H22         14.1930    45.0840    -2.2940 ho         1 K6Y       0.453000
     56 C1          12.1330    48.8580    -7.0030 c3         1 K6Y      -0.136400
@<TRIPOS>BOND
     1     1     4 1   
     2     1    10 1   
     3     1    29 2   
     4     2     9 ar  
     5     2    11 ar  
     6     2    13 1   
     7     3     7 1   
     8     3     8 ar  
     9     3    12 ar  
    10     4     5 1   
    11     4     6 1   
    12     4    32 1   
    13     5    34 1   
    14     5    35 1   
    15     5    36 1   
    16     6     7 3   
    17     8     9 ar  
    18     8    37 1   
    19     9    18 1   
    20    10    15 2   
    21    10    38 1   
    22    11    12 ar  
    23    11    42 1   
    24    12    24 1   
    25    13    14 1   
    26    13    17 1   
    27    13    43 1   
    28    14    16 1   
    29    14    44 1   
    30    14    45 1   
    31    15    33 1   
    32    15    56 1   
    33    16    17 1   
    34    16    25 1   
    35    16    46 1   
    36    17    47 1   
    37    17    48 1   
    38    18    25 1   
    39    18    26 2   
    40    19    20 2   
    41    19    23 1   
    42    19    26 1   
    43    20    21 1   
    44    20    25 1   
    45    21    27 1   
    46    21    30 2   
    47    22    27 1   
    48    22    49 1   
    49    22    50 1   
    50    22    51 1   
    51    23    28 1   
    52    23    31 2   
    53    27    52 1   
    54    28    53 1   
    55    28    54 1   
    56    29    33 1   
    57    32    55 1   
    58    39    56 1   
    59    40    56 1   
    60    41    56 1   
@<TRIPOS>SUBSTRUCTURE
     1 K6Y         1 TEMP              0 ****  ****    0 ROOT
