@<TRIPOS>MOLECULE
K6Y
   56    60     1     0     0
SMALL
abcg2


@<TRIPOS>ATOM
      1 C4          13.0230    46.3500    -4.9030 cc         1 K6Y       0.290300
      2 C14         19.0440    42.1090    -7.0120 ca         1 K6Y      -0.018300
      3 C11         16.7860    43.3700    -5.8560 ca         1 K6Y      -0.012000
      4 C7          13.5040    45.1270    -4.1540 c3         1 K6Y       0.241800
      5 C8          12.3710    44.0880    -4.0820 c3         1 K6Y      -0.113100
      6 C9          14.6890    44.5330    -4.7890 c1         1 K6Y      -0.132100
      7 C10         15.6530    43.9970    -5.2680 cg         1 K6Y      -0.075000
      8 C12         16.8940    43.2000    -7.2370 ca         1 K6Y      -0.027000
      9 C13         17.9950    42.5800    -7.8340 ca         1 K6Y      -0.134500
     10 C3          12.0520    47.2850    -4.4550 cc         1 K6Y      -0.226000
     11 C15         18.9420    42.2790    -5.6330 ca         1 K6Y      -0.156000
     12 C16         17.8410    42.8930    -5.0790 ca         1 K6Y       0.200000
     13 C18         20.2710    41.4410    -7.5490 cy         1 K6Y      -0.049400
     14 C19         20.9000    42.1960    -8.7550 cy         1 K6Y      -0.092900
     15 C2          11.9340    48.1650    -5.4830 cd         1 K6Y       0.189300
     16 C20         20.1250    41.2610    -9.7060 cy         1 K6Y       0.057300
     17 C21         19.9600    40.2730    -8.5320 cy         1 K6Y      -0.092900
     18 C23         17.9490    42.4690    -9.3020 cc         1 K6Y       0.483000
     19 C25         17.2260    42.7200   -11.3270 cd         1 K6Y       0.201500
     20 C26         18.3980    41.9730   -11.4270 cc         1 K6Y      -0.174600
     21 C27         19.0430    41.2550   -12.5670 c          1 K6Y       0.621700
     22 C30         19.2940    41.0980   -14.9770 c3         1 K6Y       0.094300
     23 C31         16.2880    43.2310   -12.3570 c          1 K6Y       0.546600
     24 F17         17.7820    43.0380    -3.7390 f          1 K6Y      -0.169000
     25 N22         18.8470    41.8390   -10.1260 na         1 K6Y      -0.116500
     26 N24         16.9660    42.9930   -10.0170 nd         1 K6Y      -0.691000
     27 N29         18.8270    41.7730   -13.7810 ns         1 K6Y      -0.485900
     28 N33         15.1290    43.6940   -11.8680 nt         1 K6Y      -0.572000
     29 N5          13.4580    46.6360    -6.1010 nd         1 K6Y      -0.339300
     30 O28         19.7230    40.2370   -12.3830 o          1 K6Y      -0.635100
     31 O32         16.5480    43.2530   -13.5690 o          1 K6Y      -0.650100
     32 O34         13.8320    45.5980    -2.8370 oh         1 K6Y      -0.644000
     33 O6          12.7670    47.7930    -6.4820 os         1 K6Y      -0.098700
     34 H1          12.7060    43.2280    -3.4990 hc         1 K6Y       0.054700
     35 H2          11.5010    44.5340    -3.6000 hc         1 K6Y       0.054700
     36 H3          12.0980    43.7520    -5.0820 hc         1 K6Y       0.054700
     37 H4          16.0930    43.5590    -7.8650 ha         1 K6Y       0.151000
     38 H5          11.5310    47.2990    -3.5150 ha         1 K6Y       0.157000
     39 H6          11.7580    50.2500    -5.8630 hc         1 K6Y       0.063700
     40 H7          10.4820    49.2630    -6.5820 hc         1 K6Y       0.063700
     41 H8          10.4880    49.5630    -4.8330 hc         1 K6Y       0.063700
     42 H9          19.7330    41.9310    -4.9810 ha         1 K6Y       0.136000
     43 H10         20.9460    41.2030    -6.7310 hc         1 K6Y       0.076700
     44 H11         21.9690    42.0050    -8.8240 hc         1 K6Y       0.074700
     45 H12         20.7090    43.2650    -8.8380 hc         1 K6Y       0.074700
     46 H13         20.6290    40.9060   -10.5920 h1         1 K6Y       0.127700
     47 H14         18.9990    39.7720    -8.4360 hc         1 K6Y       0.074700
     48 H15         20.7630    39.5380    -8.5350 hc         1 K6Y       0.074700
     49 H16         19.0050    41.6950   -15.8400 h1         1 K6Y       0.042367
     50 H17         20.3790    40.9950   -14.9630 h1         1 K6Y       0.042367
     51 H18         18.8580    40.1000   -15.0700 h1         1 K6Y       0.042367
     52 H19         18.1020    42.4900   -13.8650 hn         1 K6Y       0.370500
     53 H20         14.4610    44.1180   -12.4920 hn         1 K6Y       0.333000
     54 H21         14.9670    43.7040   -10.8740 hn         1 K6Y       0.333000
     55 H22         14.0440    44.8280    -2.2910 ho         1 K6Y       0.453000
     56 C1          11.1180    49.3800    -5.7020 c3         1 K6Y      -0.136400
@<TRIPOS>BOND
     1     1     4 1   
     2     1    10 1   
     3     1    29 2   
     4     2     9 ar  
     5     2    11 ar  
     6     2    13 1   
     7     3     7 1   
     8     3     8 ar  
     9     3    12 ar  
    10     4     5 1   
    11     4     6 1   
    12     4    32 1   
    13     5    34 1   
    14     5    35 1   
    15     5    36 1   
    16     6     7 3   
    17     8     9 ar  
    18     8    37 1   
    19     9    18 1   
    20    10    15 2   
    21    10    38 1   
    22    11    12 ar  
    23    11    42 1   
    24    12    24 1   
    25    13    14 1   
    26    13    17 1   
    27    13    43 1   
    28    14    16 1   
    29    14    44 1   
    30    14    45 1   
    31    15    33 1   
    32    15    56 1   
    33    16    17 1   
    34    16    25 1   
    35    16    46 1   
    36    17    47 1   
    37    17    48 1   
    38    18    25 1   
    39    18    26 2   
    40    19    20 2   
    41    19    23 1   
    42    19    26 1   
    43    20    21 1   
    44    20    25 1   
    45    21    27 1   
    46    21    30 2   
    47    22    27 1   
    48    22    49 1   
    49    22    50 1   
    50    22    51 1   
    51    23    28 1   
    52    23    31 2   
    53    27    52 1   
    54    28    53 1   
    55    28    54 1   
    56    29    33 1   
    57    32    55 1   
    58    39    56 1   
    59    40    56 1   
    60    41    56 1   
@<TRIPOS>SUBSTRUCTURE
     1 K6Y         1 TEMP              0 ****  ****    0 ROOT
