@<TRIPOS>MOLECULE
K6Z
   36    38     1     0     0
SMALL
No Charge or Current Charge


@<TRIPOS>ATOM
      1 C10         16.8900    20.9750    -4.9500 ca         1 K6Z      -0.108500
      2 C13         16.8750    20.0940    -2.2880 ca         1 K6Z      -0.110000
      3 C17         19.4220    21.2810    -9.4970 ca         1 K6Z      -0.159500
      4 C20         20.5180    23.8430    -9.1440 ca         1 K6Z      -0.076000
      5 C21         20.0630    23.1100    -8.0330 ca         1 K6Z      -0.159500
      6 S01         20.1020    18.5800    -7.6210 ss         1 K6Z       0.288000
      7 C02         19.1570    19.7850    -6.7180 cc         1 K6Z       0.201000
      8 C03         18.6570    19.2410    -5.5450 cd         1 K6Z      -0.156000
      9 C04         19.0090    17.8590    -5.4090 cd         1 K6Z      -0.061000
     10 C05         19.7970    17.3460    -6.4130 cc         1 K6Z      -0.315900
     11 C06         20.2980    16.0020    -6.5970 ce         1 K6Z       0.697800
     12 N07         20.2610    15.1470    -5.5640 nv         1 K6Z      -1.062200
     13 N08         20.6410    15.5600    -7.7320 n2         1 K6Z      -0.847100
     14 C09         17.7530    19.9170    -4.5750 ca         1 K6Z      -0.004000
     15 C11         16.0440    21.5870    -4.0080 ca         1 K6Z      -0.110000
     16 C12         16.0390    21.1510    -2.6750 ca         1 K6Z      -0.113000
     17 C14         17.7190    19.4800    -3.2300 ca         1 K6Z      -0.108500
     18 C16         19.5250    21.8240    -8.2030 ca         1 K6Z       0.303000
     19 C18         19.8750    22.0110   -10.6110 ca         1 K6Z      -0.076000
     20 C19         20.4260    23.2910   -10.4330 ca         1 K6Z      -0.139000
     21 H1          16.8240    21.3050    -5.9820 ha         1 K6Z       0.116000
     22 H2          16.8730    19.7510    -1.2560 ha         1 K6Z       0.111500
     23 H4          20.9400    24.8370    -9.0060 ha         1 K6Z       0.114000
     24 H5          20.1380    23.5410    -7.0390 ha         1 K6Z       0.120500
     25 H6          18.6590    17.2440    -4.5860 ha         1 K6Z       0.132000
     26 H7          20.1530    15.5910    -4.6610 hn         1 K6Z       0.458000
     27 H8          20.9310    14.3880    -5.5920 hn         1 K6Z       0.458000
     28 H9          20.6540    14.5370    -7.6740 hn         1 K6Z       0.376400
     29 H10         15.3830    22.3940    -4.3170 ha         1 K6Z       0.111500
     30 H11         15.3840    21.6250    -1.9470 ha         1 K6Z       0.112000
     31 H12         18.3700    18.6770    -2.8950 ha         1 K6Z       0.116000
     32 H14         19.7930    21.5860   -11.6090 ha         1 K6Z       0.114000
     33 H15         20.7760    23.8570   -11.2930 ha         1 K6Z       0.116000
     34 N15         19.0720    21.1220    -7.0860 nu         1 K6Z      -0.963000
     35 H3          18.9770    20.3030    -9.6450 ha         1 K6Z       0.120500
     36 H13         18.8210    21.7200    -6.2990 hn         1 K6Z       0.501000
@<TRIPOS>BOND
     1     1    14 ar  
     2     1    15 ar  
     3     1    21 1   
     4     2    16 ar  
     5     2    17 ar  
     6     2    22 1   
     7     3    18 ar  
     8     3    19 ar  
     9     3    35 1   
    10     4     5 ar  
    11     4    20 ar  
    12     4    23 1   
    13     5    18 ar  
    14     5    24 1   
    15     6     7 1   
    16     6    10 1   
    17     7     8 2   
    18     7    34 1   
    19     8     9 1   
    20     8    14 1   
    21     9    10 2   
    22     9    25 1   
    23    10    11 1   
    24    11    12 1   
    25    11    13 2   
    26    12    26 1   
    27    12    27 1   
    28    13    28 1   
    29    14    17 ar  
    30    15    16 ar  
    31    15    29 1   
    32    16    30 1   
    33    17    31 1   
    34    18    34 1   
    35    19    20 ar  
    36    19    32 1   
    37    20    33 1   
    38    34    36 1   
@<TRIPOS>SUBSTRUCTURE
     1 K6Z         1 TEMP              0 ****  ****    0 ROOT
