@<TRIPOS>MOLECULE
K6Z
   36    38     1     0     0
SMALL
abcg2


@<TRIPOS>ATOM
      1 C10         16.7590    20.8500    -4.9950 ca         1 K6Z      -0.108500
      2 C13         16.9820    20.2660    -2.2930 ca         1 K6Z      -0.110000
      3 C17         19.4320    21.1950    -9.3300 ca         1 K6Z      -0.159500
      4 C20         20.5140    23.7460    -9.1580 ca         1 K6Z      -0.076000
      5 C21         20.1430    23.0750    -8.0050 ca         1 K6Z      -0.159500
      6 S01         20.1960    18.6970    -7.4950 ss         1 K6Z       0.288000
      7 C02         19.2250    19.8280    -6.6110 cc         1 K6Z       0.201000
      8 C03         18.6010    19.2380    -5.5300 cd         1 K6Z      -0.156000
      9 C04         18.9390    17.8610    -5.4280 cd         1 K6Z      -0.061000
     10 C05         19.7720    17.4190    -6.4090 cc         1 K6Z      -0.315900
     11 C06         20.2800    16.0780    -6.6990 ce         1 K6Z       0.697800
     12 N07         19.9940    15.1240    -5.7630 nv         1 K6Z      -1.062200
     13 N08         20.9040    15.9050    -7.8030 n2         1 K6Z      -0.847100
     14 C09         17.7240    19.9300    -4.5740 ca         1 K6Z      -0.004000
     15 C11         15.9250    21.4710    -4.0780 ca         1 K6Z      -0.110000
     16 C12         16.0310    21.1830    -2.7240 ca         1 K6Z      -0.113000
     17 C14         17.8210    19.6490    -3.2090 ca         1 K6Z      -0.108500
     18 C16         19.6020    21.7880    -8.0780 ca         1 K6Z       0.303000
     19 C18         19.8260    21.8710   -10.4760 ca         1 K6Z      -0.076000
     20 C19         20.3680    23.1460   -10.4030 ca         1 K6Z      -0.139000
     21 H1          16.6410    21.0670    -6.0490 ha         1 K6Z       0.116000
     22 H2          17.0750    20.0330    -1.2410 ha         1 K6Z       0.111500
     23 H4          20.9310    24.7420    -9.0780 ha         1 K6Z       0.114000
     24 H5          20.2770    23.5440    -7.0380 ha         1 K6Z       0.120500
     25 H6          18.5200    17.2210    -4.6620 ha         1 K6Z       0.132000
     26 H7          19.8530    15.4190    -4.8110 hn         1 K6Z       0.458000
     27 H8          20.4990    14.2540    -5.8330 hn         1 K6Z       0.458000
     28 H9          21.2330    14.9490    -7.9000 hn         1 K6Z       0.376400
     29 H10         15.1800    22.1760    -4.4260 ha         1 K6Z       0.111500
     30 H11         15.3760    21.6660    -2.0110 ha         1 K6Z       0.112000
     31 H12         18.5690    18.9480    -2.8580 ha         1 K6Z       0.116000
     32 H14         19.6860    21.3960   -11.4390 ha         1 K6Z       0.114000
     33 H15         20.6640    23.6690   -11.3030 ha         1 K6Z       0.116000
     34 N15         19.2170    21.1650    -6.8970 nu         1 K6Z      -0.963000
     35 H3          18.9690    20.2210    -9.4250 ha         1 K6Z       0.120500
     36 H13         19.0900    21.7720    -6.1010 hn         1 K6Z       0.501000
@<TRIPOS>BOND
     1     1    14 ar  
     2     1    15 ar  
     3     1    21 1   
     4     2    16 ar  
     5     2    17 ar  
     6     2    22 1   
     7     3    18 ar  
     8     3    19 ar  
     9     3    35 1   
    10     4     5 ar  
    11     4    20 ar  
    12     4    23 1   
    13     5    18 ar  
    14     5    24 1   
    15     6     7 1   
    16     6    10 1   
    17     7     8 2   
    18     7    34 1   
    19     8     9 1   
    20     8    14 1   
    21     9    10 2   
    22     9    25 1   
    23    10    11 1   
    24    11    12 1   
    25    11    13 2   
    26    12    26 1   
    27    12    27 1   
    28    13    28 1   
    29    14    17 ar  
    30    15    16 ar  
    31    15    29 1   
    32    16    30 1   
    33    17    31 1   
    34    18    34 1   
    35    19    20 ar  
    36    19    32 1   
    37    20    33 1   
    38    34    36 1   
@<TRIPOS>SUBSTRUCTURE
     1 K6Z         1 TEMP              0 ****  ****    0 ROOT
