@<TRIPOS>MOLECULE
K70
   41    44     1     0     0
SMALL
bcc


@<TRIPOS>ATOM
      1 C02         -4.8540     1.3460     0.2440 c          1 K70       0.669700
      2 C05         -3.5340     0.8410    -0.2340 ca         1 K70      -0.134600
      3 C06         -3.0450     1.3250    -1.4430 ca         1 K70      -0.081500
      4 C07         -1.8210     0.8930    -1.9260 ca         1 K70      -0.126000
      5 C08         -1.0550    -0.0170    -1.2060 ca         1 K70      -0.106300
      6 C09          0.2530    -0.5140    -1.7640 c3         1 K70       0.085600
      7 C11          1.6410     0.6290    -0.0870 ca         1 K70       0.137000
      8 C12          1.3150     1.8840    -0.6060 ca         1 K70      -0.146000
      9 C13          1.7000     3.0380     0.0550 ca         1 K70      -0.027000
     10 C14          2.4290     2.9920     1.2380 ca         1 K70      -0.130000
     11 C15          2.7670     1.7630     1.7710 ca         1 K70      -0.029000
     12 C16          2.3530     0.6130     1.1140 ca         1 K70      -0.491000
     13 C18          2.9680    -1.8900     0.3940 ca         1 K70      -0.197800
     14 C19          3.9000    -2.9120     0.3750 ca         1 K70       0.024000
     15 C20          3.9660    -3.7020    -0.7580 ca         1 K70      -0.265300
     16 C21          3.0790    -3.4280    -1.7900 ca         1 K70       0.521200
     17 C23          2.1610    -1.6340    -0.7200 ca         1 K70       0.596800
     18 C24         -1.5370    -0.4880     0.0100 ca         1 K70      -0.126000
     19 C25         -2.7640    -0.0650     0.4940 ca         1 K70      -0.081500
     20 N03         -5.5240     0.4740     1.0310 ns         1 K70      -0.439400
     21 N10          1.2960    -0.5550    -0.7430 nh         1 K70      -0.272200
     22 N22          2.2170    -2.4210    -1.7800 nb         1 K70      -0.706000
     23 O01         -5.2700     2.4540    -0.0400 o          1 K70      -0.540100
     24 O04         -6.8050     0.7720     1.3900 oh         1 K70      -0.383100
     25 S17          2.7200    -0.9410     1.8440 sx         1 K70       0.334500
     26 H1          -3.6230     2.0390    -2.0140 ha         1 K70       0.156000
     27 H2          -1.4590     1.2750    -2.8730 ha         1 K70       0.131500
     28 H3           0.1260    -1.5300    -2.1310 h1         1 K70       0.087700
     29 H4           0.5650     0.0800    -2.6270 h1         1 K70       0.087700
     30 H6           1.4380     3.9940    -0.3760 ha         1 K70       0.166000
     31 H7           2.7260     3.9020     1.7390 ha         1 K70       0.170000
     32 H8           3.3300     1.6920     2.6920 ha         1 K70       0.156000
     33 H9           4.5340    -3.0980     1.2320 ha         1 K70       0.163000
     34 H10          4.6650    -4.5210    -0.8310 ha         1 K70       0.180000
     35 H11          3.0720    -4.0470    -2.6780 h4         1 K70       0.055100
     36 H12         -0.9540    -1.1900     0.5930 ha         1 K70       0.131500
     37 H13         -3.1000    -0.4360     1.4540 ha         1 K70       0.156000
     38 H14         -5.3300    -0.5170     0.9950 hn         1 K70       0.331500
     39 H15         -6.7610     1.0610     2.3110 ho         1 K70       0.416000
     40 H16          1.4770    -1.3470     2.1850 hs         1 K70       0.356000
     41 H5           0.7780     1.9760    -1.5370 ha         1 K70       0.167000
@<TRIPOS>BOND
     1     1     2 1   
     2     1    20 1   
     3     1    23 2   
     4     2     3 ar  
     5     2    19 ar  
     6     3     4 ar  
     7     3    26 1   
     8     4     5 ar  
     9     4    27 1   
    10     5     6 1   
    11     5    18 ar  
    12     6    21 1   
    13     6    28 1   
    14     6    29 1   
    15     7     8 ar  
    16     7    12 ar  
    17     7    21 2   
    18     8     9 ar  
    19     8    41 1   
    20     9    10 ar  
    21     9    30 1   
    22    10    11 ar  
    23    10    31 1   
    24    11    12 ar  
    25    11    32 1   
    26    12    25 2   
    27    13    14 ar  
    28    13    17 ar  
    29    13    25 1   
    30    14    15 ar  
    31    14    33 1   
    32    15    16 ar  
    33    15    34 1   
    34    16    22 ar  
    35    16    35 1   
    36    17    21 1   
    37    17    22 ar  
    38    18    19 ar  
    39    18    36 1   
    40    19    37 1   
    41    20    24 1   
    42    20    38 1   
    43    24    39 1   
    44    25    40 1   
@<TRIPOS>SUBSTRUCTURE
     1 K70         1 TEMP              0 ****  ****    0 ROOT
