@<TRIPOS>MOLECULE
K70
   41    44     1     0     0
SMALL
No Charge or Current Charge


@<TRIPOS>ATOM
      1 C02         -4.8360     1.4850     0.1820 c          1 K70       0.602700
      2 C05         -3.5280     0.8920    -0.3090 ca         1 K70      -0.134600
      3 C06         -2.9750     1.3460    -1.5280 ca         1 K70      -0.063500
      4 C07         -1.7650     0.8200    -2.0120 ca         1 K70      -0.108000
      5 C08         -1.0750    -0.1670    -1.2850 ca         1 K70      -0.106300
      6 C09          0.2430    -0.7360    -1.8070 c3         1 K70       0.114900
      7 C11          1.5870     0.5750    -0.1280 ca         1 K70       0.137000
      8 C12          1.2520     1.8380    -0.6620 ca         1 K70      -0.128000
      9 C13          1.4650     3.0140     0.0750 ca         1 K70      -0.009000
     10 C14          2.0280     2.9430     1.3580 ca         1 K70      -0.112000
     11 C15          2.3800     1.6980     1.8990 ca         1 K70      -0.011000
     12 C16          2.1640     0.5210     1.1560 ca         1 K70      -0.491000
     13 C18          3.0230    -1.9620     0.3820 ca         1 K70      -0.132500
     14 C19          3.9840    -2.9850     0.3880 ca         1 K70       0.042000
     15 C20          4.2330    -3.6640    -0.8130 ca         1 K70      -0.182000
     16 C21          3.5150    -3.3040    -1.9610 ca         1 K70       0.455900
     17 C23          2.3500    -1.6510    -0.8120 ca         1 K70       0.531500
     18 C24         -1.6200    -0.6290    -0.0740 ca         1 K70      -0.108000
     19 C25         -2.8300    -0.1070     0.4140 ca         1 K70      -0.063500
     20 N03         -5.3710     0.9480     1.3510 ns         1 K70      -0.372400
     21 N10          1.3990    -0.6090    -0.8800 nh         1 K70      -0.301500
     22 N22          2.5890    -2.3170    -1.9670 nb         1 K70      -0.706000
     23 O01         -5.3930     2.4020    -0.4110 o          1 K70      -0.540100
     24 O04         -6.7220     1.2670     1.7680 oh         1 K70      -0.422100
     25 S17          2.6150    -1.0920     1.9330 sx         1 K70       0.334500
     26 H1          -3.4850     2.1110    -2.1110 ha         1 K70       0.138000
     27 H2          -1.3650     1.1870    -2.9550 ha         1 K70       0.113500
     28 H3           0.0600    -1.7970    -2.0210 h1         1 K70       0.087700
     29 H4           0.4990    -0.2650    -2.7650 h1         1 K70       0.087700
     30 H6           1.2000     3.9800    -0.3500 ha         1 K70       0.148000
     31 H7           2.1950     3.8520     1.9310 ha         1 K70       0.152000
     32 H8           2.8180     1.6530     2.8960 ha         1 K70       0.138000
     33 H9           4.5180    -3.2520     1.2990 ha         1 K70       0.145000
     34 H10          4.9660    -4.4640    -0.8610 ha         1 K70       0.162000
     35 H11          3.6860    -3.8180    -2.9060 h4         1 K70       0.055100
     36 H12         -1.1010    -1.3960     0.4960 ha         1 K70       0.113500
     37 H13         -3.2050    -0.4880     1.3610 ha         1 K70       0.138000
     38 H14         -4.9790     0.0890     1.7300 hn         1 K70       0.331500
     39 H15         -6.6190     1.5250     2.7150 ho         1 K70       0.455000
     40 H16          1.3000    -1.5720     1.9400 hs         1 K70       0.356000
     41 H5           0.8390     1.9200    -1.6630 ha         1 K70       0.149000
@<TRIPOS>BOND
     1     1     2 1   
     2     1    20 1   
     3     1    23 2   
     4     2     3 ar  
     5     2    19 ar  
     6     3     4 ar  
     7     3    26 1   
     8     4     5 ar  
     9     4    27 1   
    10     5     6 1   
    11     5    18 ar  
    12     6    21 1   
    13     6    28 1   
    14     6    29 1   
    15     7     8 ar  
    16     7    12 ar  
    17     7    21 2   
    18     8     9 ar  
    19     8    41 1   
    20     9    10 ar  
    21     9    30 1   
    22    10    11 ar  
    23    10    31 1   
    24    11    12 ar  
    25    11    32 1   
    26    12    25 2   
    27    13    14 ar  
    28    13    17 ar  
    29    13    25 1   
    30    14    15 ar  
    31    14    33 1   
    32    15    16 ar  
    33    15    34 1   
    34    16    22 ar  
    35    16    35 1   
    36    17    21 1   
    37    17    22 ar  
    38    18    19 ar  
    39    18    36 1   
    40    19    37 1   
    41    20    24 1   
    42    20    38 1   
    43    24    39 1   
    44    25    40 1   
@<TRIPOS>SUBSTRUCTURE
     1 K70         1 TEMP              0 ****  ****    0 ROOT
