@<TRIPOS>MOLECULE
K71
   32    32     1     0     0
SMALL
abcg2


@<TRIPOS>ATOM
      1 CAQ         20.0510     0.0590    34.9340 c3         1 K71       0.154900
      2 OAI         19.0260     0.4450    35.8130 os         1 K71      -0.445000
      3 CAC         19.4680     1.0290    37.0140 c6         1 K71       0.173300
      4 CAB         20.1270     2.3970    36.8200 c6         1 K71       0.119300
      5 OAJ         19.2560     3.2170    36.0770 oh         1 K71      -0.694000
      6 CAD         18.2730     1.1410    37.9460 c6         1 K71      -0.077400
      7 CAE         18.6840     1.7630    39.2740 c6         1 K71       0.238000
      8 CAG         17.4650     2.1000    40.1910 c          1 K71       0.717000
      9 OAM         17.6000     1.7000    41.3700 o          1 K71      -0.696500
     10 OAL         16.5160     2.7160    39.6950 o          1 K71      -0.696500
     11 OAH         19.5240     0.9080    39.9740 oh         1 K71      -0.723000
     12 OAF         19.3100     3.0100    39.0350 os         1 K71      -0.454000
     13 CAA         20.4520     2.9670    38.2070 c6         1 K71       0.157300
     14 CAK         20.9750     4.4040    38.1550 c3         1 K71       0.169300
     15 OAN         22.0160     4.4320    37.2030 oh         1 K71      -0.726000
     16 CAO         21.4220     4.9230    39.5130 c3         1 K71       0.136600
     17 OAP         22.4390     4.1030    40.0370 oh         1 K71      -0.647000
     18 H1          19.5960    -0.5150    34.1280 h1         1 K71       0.013700
     19 H2          20.5750     0.9110    34.4860 h1         1 K71       0.013700
     20 H3          20.7990    -0.5750    35.4260 h1         1 K71       0.013700
     21 H4          20.2260     0.3780    37.4780 h1         1 K71       0.039700
     22 H5          21.0800     2.2580    36.2940 h1         1 K71       0.023700
     23 H6          19.7640     3.9550    35.7280 ho         1 K71       0.482000
     24 H7          17.4980     1.7570    37.4860 hc         1 K71       0.070200
     25 H8          17.8420     0.1520    38.1240 hc         1 K71       0.070200
     26 H10         19.1420     0.9430    40.8770 ho         1 K71       0.489000
     27 H11         21.2270     2.3230    38.6440 h1         1 K71       0.064700
     28 H12         20.1430     5.0540    37.8440 h1         1 K71       0.047700
     29 H13         22.2870     5.3470    37.0740 ho         1 K71       0.488000
     30 H14         21.7680     5.9600    39.3830 h1         1 K71       0.023200
     31 H15         20.5480     4.9700    40.1720 h1         1 K71       0.023200
     32 H16         22.6750     4.4360    40.9070 ho         1 K71       0.430000
@<TRIPOS>BOND
     1     1     2 1   
     2     1    18 1   
     3     1    19 1   
     4     1    20 1   
     5     2     3 1   
     6     3     4 1   
     7     3     6 1   
     8     3    21 1   
     9     4     5 1   
    10     4    13 1   
    11     4    22 1   
    12     5    23 1   
    13     6     7 1   
    14     6    24 1   
    15     6    25 1   
    16     7     8 1   
    17     7    11 1   
    18     7    12 1   
    19     8     9 1   
    20     8    10 1   
    21    11    26 1   
    22    12    13 1   
    23    13    14 1   
    24    13    27 1   
    25    14    15 1   
    26    14    16 1   
    27    14    28 1   
    28    15    29 1   
    29    16    17 1   
    30    16    30 1   
    31    16    31 1   
    32    17    32 1   
@<TRIPOS>SUBSTRUCTURE
     1 K71         1 TEMP              0 ****  ****    0 ROOT
