@<TRIPOS>MOLECULE
K71
   32    32     1     0     0
SMALL
No Charge or Current Charge


@<TRIPOS>ATOM
      1 CAQ         20.0940     0.0050    34.8530 c3         1 K71       0.154900
      2 OAI         19.0640     0.2960    35.8130 os         1 K71      -0.445000
      3 CAC         19.4670     0.9720    37.0320 c6         1 K71       0.173300
      4 CAB         20.0600     2.4010    36.7770 c6         1 K71       0.119300
      5 OAJ         19.1570     3.2200    35.9930 oh         1 K71      -0.694000
      6 CAD         18.2560     1.0480    37.9970 c6         1 K71      -0.077400
      7 CAE         18.5950     1.7990    39.3150 c6         1 K71       0.238000
      8 CAG         17.2500     1.9440    40.1930 c          1 K71       0.717000
      9 OAM         17.2280     1.2410    41.2020 o          1 K71      -0.696500
     10 OAL         16.6880     3.0350    40.2110 o          1 K71      -0.696500
     11 OAH         19.5740     1.0500    40.0660 oh         1 K71      -0.723000
     12 OAF         19.1980     3.0870    38.9990 os         1 K71      -0.454000
     13 CAA         20.3920     3.0420    38.1680 c6         1 K71       0.157300
     14 CAK         20.9580     4.5030    38.0640 c3         1 K71       0.169300
     15 OAN         22.0790     4.5920    37.1640 oh         1 K71      -0.726000
     16 CAO         21.4180     5.0940    39.4270 c3         1 K71       0.136600
     17 OAP         22.6650     4.4990    39.8340 oh         1 K71      -0.647000
     18 H1          19.6800    -0.5730    34.0170 h1         1 K71       0.013700
     19 H2          20.5270     0.9270    34.4450 h1         1 K71       0.013700
     20 H3          20.8980    -0.5860    35.3120 h1         1 K71       0.013700
     21 H4          20.2460     0.3600    37.5100 h1         1 K71       0.039700
     22 H5          21.0070     2.2810    36.2310 h1         1 K71       0.023700
     23 H6          19.6720     4.0110    35.7150 ho         1 K71       0.482000
     24 H7          17.4210     1.5560    37.4970 hc         1 K71       0.070200
     25 H8          17.9050     0.0330    38.2270 hc         1 K71       0.070200
     26 H10         19.0690     0.8020    40.8800 ho         1 K71       0.489000
     27 H11         21.1560     2.4280    38.6670 h1         1 K71       0.064700
     28 H12         20.1420     5.1370    37.6930 h1         1 K71       0.047700
     29 H13         22.8620     4.5270    37.7650 ho         1 K71       0.488000
     30 H14         21.5370     6.1800    39.3210 h1         1 K71       0.023200
     31 H15         20.6430     4.9220    40.1860 h1         1 K71       0.023200
     32 H16         22.8640     4.8360    40.7360 ho         1 K71       0.430000
@<TRIPOS>BOND
     1     1     2 1   
     2     1    18 1   
     3     1    19 1   
     4     1    20 1   
     5     2     3 1   
     6     3     4 1   
     7     3     6 1   
     8     3    21 1   
     9     4     5 1   
    10     4    13 1   
    11     4    22 1   
    12     5    23 1   
    13     6     7 1   
    14     6    24 1   
    15     6    25 1   
    16     7     8 1   
    17     7    11 1   
    18     7    12 1   
    19     8     9 1   
    20     8    10 1   
    21    11    26 1   
    22    12    13 1   
    23    13    14 1   
    24    13    27 1   
    25    14    15 1   
    26    14    16 1   
    27    14    28 1   
    28    15    29 1   
    29    16    17 1   
    30    16    30 1   
    31    16    31 1   
    32    17    32 1   
@<TRIPOS>SUBSTRUCTURE
     1 K71         1 TEMP              0 ****  ****    0 ROOT
