@<TRIPOS>MOLECULE
K72
   41    42     1     0     0
SMALL
abcg2


@<TRIPOS>ATOM
      1 CAA          7.1670     2.4220    -0.3310 c3         1 K72      -0.034900
      2 CAE          6.3580     1.3120     0.2670 c2         1 K72      -0.315200
      3 CAH          6.0720     0.1860    -0.3990 c2         1 K72      -0.007000
      4 NAT          5.4330    -0.9560     0.0490 nh         1 K72      -0.637400
      5 CAP          4.6620    -1.6920    -0.9380 c6         1 K72       0.191300
      6 CAN          3.2570    -1.1190    -1.1110 c6         1 K72      -0.105400
      7 CAO          4.7750    -0.9390     1.3400 c6         1 K72       0.191300
      8 CAM          3.3780    -0.3260     1.2670 c6         1 K72      -0.105400
      9 CAS          2.5220    -1.0730     0.2350 c6         1 K72      -0.032500
     10 CAG          1.1740    -0.4450     0.0970 c2         1 K72      -0.181200
     11 CAF          0.0260    -1.1040     0.2650 ce         1 K72      -0.179200
     12 CAQ         -1.3260    -0.5550     0.1460 ca         1 K72      -0.012800
     13 CAI         -1.5910     0.8050    -0.0360 ca         1 K72      -0.112000
     14 CAK         -2.8870     1.2740    -0.1350 ca         1 K72      -0.058500
     15 CAR         -3.9600     0.3910    -0.0500 ca         1 K72      -0.199300
     16 CAU         -5.3610     0.8890    -0.1960 c3         1 K72       0.357300
     17 FAC         -5.7740     0.8540    -1.4740 f          1 K72      -0.114333
     18 FAD         -6.2350     0.1570     0.5060 f          1 K72      -0.114333
     19 FAB         -5.4950     2.1570     0.2120 f          1 K72      -0.114333
     20 CAL         -3.7170    -0.9650     0.1300 ca         1 K72      -0.058500
     21 CAJ         -2.4160    -1.4260     0.2280 ca         1 K72      -0.112000
     22 H1           6.6090     3.3620    -0.3560 hc         1 K72       0.031367
     23 H2           8.0780     2.6190     0.2400 hc         1 K72       0.031367
     24 H3           7.4680     2.1930    -1.3540 hc         1 K72       0.031367
     25 H4           6.0210     1.4550     1.2880 ha         1 K72       0.169000
     26 H5           6.4130     0.0940    -1.4280 h4         1 K72       0.175000
     27 H6           5.1990    -1.6900    -1.8880 h1         1 K72       0.054700
     28 H7           4.5930    -2.7360    -0.6150 h1         1 K72       0.054700
     29 H8           3.3250    -0.1080    -1.5300 hc         1 K72       0.050950
     30 H9           2.6960    -1.7260    -1.8250 hc         1 K72       0.050950
     31 H10          4.6970    -1.9730     1.6910 h1         1 K72       0.054700
     32 H11          5.3970    -0.4150     2.0660 h1         1 K72       0.054700
     33 H12          2.9050    -0.3640     2.2500 hc         1 K72       0.050950
     34 H13          3.4530     0.7290     0.9860 hc         1 K72       0.050950
     35 H14          2.3890    -2.1070     0.5810 hc         1 K72       0.050700
     36 H15          1.1690     0.6110    -0.1640 ha         1 K72       0.173000
     37 H16          0.0740    -2.1630     0.5080 ha         1 K72       0.174000
     38 H17         -0.7790     1.5190    -0.0910 ha         1 K72       0.119500
     39 H18         -3.0490     2.3350    -0.2690 ha         1 K72       0.129000
     40 H19         -4.5310    -1.6740     0.1990 ha         1 K72       0.129000
     41 H20         -2.2420    -2.4850     0.3710 ha         1 K72       0.119500
@<TRIPOS>BOND
     1     1     2 1   
     2     1    22 1   
     3     1    23 1   
     4     1    24 1   
     5     2     3 2   
     6     2    25 1   
     7     3     4 1   
     8     3    26 1   
     9     4     5 1   
    10     4     7 1   
    11     5     6 1   
    12     5    27 1   
    13     5    28 1   
    14     6     9 1   
    15     6    29 1   
    16     6    30 1   
    17     7     8 1   
    18     7    31 1   
    19     7    32 1   
    20     8     9 1   
    21     8    33 1   
    22     8    34 1   
    23     9    10 1   
    24     9    35 1   
    25    10    11 2   
    26    10    36 1   
    27    11    12 1   
    28    11    37 1   
    29    12    13 ar  
    30    12    21 ar  
    31    13    14 ar  
    32    13    38 1   
    33    14    15 ar  
    34    14    39 1   
    35    15    16 1   
    36    15    20 ar  
    37    16    17 1   
    38    16    18 1   
    39    16    19 1   
    40    20    21 ar  
    41    20    40 1   
    42    21    41 1   
@<TRIPOS>SUBSTRUCTURE
     1 K72         1 TEMP              0 ****  ****    0 ROOT
