@<TRIPOS>MOLECULE
K72
   41    42     1     0     0
SMALL
No Charge or Current Charge


@<TRIPOS>ATOM
      1 CAA          7.0250     2.4850    -0.6560 c3         1 K72      -0.034900
      2 CAE          6.3200     1.3220     0.0070 c2         1 K72      -0.315200
      3 CAH          6.1490     0.1130    -0.5530 c2         1 K72      -0.007000
      4 NAT          5.4850    -0.9570     0.0550 nh         1 K72      -0.637400
      5 CAP          4.6430    -1.8420    -0.7970 c6         1 K72       0.191300
      6 CAN          3.2120    -1.2570    -0.9160 c6         1 K72      -0.105400
      7 CAO          4.9290    -0.8760     1.4380 c6         1 K72       0.191300
      8 CAM          3.5070    -0.2560     1.4080 c6         1 K72      -0.105400
      9 CAS          2.5640    -1.0740     0.4830 c6         1 K72      -0.032500
     10 CAG          1.1950    -0.4200     0.3660 c2         1 K72      -0.181200
     11 CAF          0.0490    -1.1320     0.2640 ce         1 K72      -0.179200
     12 CAQ         -1.3290    -0.5700     0.1340 ca         1 K72      -0.012800
     13 CAI         -1.6130     0.7880     0.3850 ca         1 K72      -0.112000
     14 CAK         -2.9230     1.2800     0.2550 ca         1 K72      -0.058500
     15 CAR         -3.9790     0.4230    -0.1210 ca         1 K72      -0.199300
     16 CAU         -5.4060     0.9630    -0.2740 c3         1 K72       0.357300
     17 FAC         -5.6310     1.4090    -1.5300 f          1 K72      -0.114333
     18 FAD         -6.3430     0.0220    -0.0150 f          1 K72      -0.114333
     19 FAB         -5.6580     1.9960     0.5630 f          1 K72      -0.114333
     20 CAL         -3.6930    -0.9340    -0.3760 ca         1 K72      -0.058500
     21 CAJ         -2.3820    -1.4240    -0.2450 ca         1 K72      -0.112000
     22 H1           6.3520     3.3440    -0.7580 hc         1 K72       0.031367
     23 H2           7.8910     2.8070    -0.0650 hc         1 K72       0.031367
     24 H3           7.3850     2.2230    -1.6590 hc         1 K72       0.031367
     25 H4           5.9460     1.5540     1.0030 ha         1 K72       0.169000
     26 H5           6.5190    -0.0980    -1.5600 h4         1 K72       0.175000
     27 H6           5.0880    -1.9680    -1.7950 h1         1 K72       0.054700
     28 H7           4.5770    -2.8440    -0.3460 h1         1 K72       0.054700
     29 H8           3.2540    -0.2920    -1.4400 hc         1 K72       0.050950
     30 H9           2.5930    -1.9220    -1.5330 hc         1 K72       0.050950
     31 H10          4.8540    -1.8870     1.8650 h1         1 K72       0.054700
     32 H11          5.5910    -0.3070     2.1070 h1         1 K72       0.054700
     33 H12          3.0970    -0.2230     2.4260 hc         1 K72       0.050950
     34 H13          3.5670     0.7840     1.0600 hc         1 K72       0.050950
     35 H14          2.4370    -2.0700     0.9320 hc         1 K72       0.050700
     36 H15          1.1920     0.6700     0.3520 ha         1 K72       0.173000
     37 H16          0.0940    -2.2230     0.2570 ha         1 K72       0.174000
     38 H17         -0.8280     1.4730     0.6890 ha         1 K72       0.119500
     39 H18         -3.1120     2.3350     0.4490 ha         1 K72       0.129000
     40 H19         -4.4840    -1.6180    -0.6800 ha         1 K72       0.129000
     41 H20         -2.1850    -2.4740    -0.4450 ha         1 K72       0.119500
@<TRIPOS>BOND
     1     1     2 1   
     2     1    22 1   
     3     1    23 1   
     4     1    24 1   
     5     2     3 2   
     6     2    25 1   
     7     3     4 1   
     8     3    26 1   
     9     4     5 1   
    10     4     7 1   
    11     5     6 1   
    12     5    27 1   
    13     5    28 1   
    14     6     9 1   
    15     6    29 1   
    16     6    30 1   
    17     7     8 1   
    18     7    31 1   
    19     7    32 1   
    20     8     9 1   
    21     8    33 1   
    22     8    34 1   
    23     9    10 1   
    24     9    35 1   
    25    10    11 2   
    26    10    36 1   
    27    11    12 1   
    28    11    37 1   
    29    12    13 ar  
    30    12    21 ar  
    31    13    14 ar  
    32    13    38 1   
    33    14    15 ar  
    34    14    39 1   
    35    15    16 1   
    36    15    20 ar  
    37    16    17 1   
    38    16    18 1   
    39    16    19 1   
    40    20    21 ar  
    41    20    40 1   
    42    21    41 1   
@<TRIPOS>SUBSTRUCTURE
     1 K72         1 TEMP              0 ****  ****    0 ROOT
