@<TRIPOS>MOLECULE
K73
   56    58     1     0     0
SMALL
No Charge or Current Charge


@<TRIPOS>ATOM
      1 N           52.8490   -11.2990   166.5380 n8         1 K73      -0.998200
      2 C           54.2290   -11.3520   167.0530 c3         1 K73       0.198100
      3 O           59.5420   -14.0550   162.6210 o          1 K73      -0.581100
      4 C1          55.2480   -11.3900   165.9210 ca         1 K73      -0.089300
      5 C10         63.3840   -14.6420   163.7240 c5         1 K73       0.109000
      6 C11         61.3450   -15.2230   165.1680 c          1 K73       0.626100
      7 C12         61.9600   -16.6320   165.5440 c3         1 K73       0.096500
      8 C13         62.6030   -16.5910   166.9550 c3         1 K73      -0.070100
      9 C14         63.7890   -15.6380   167.0330 ca         1 K73      -0.082300
     10 C15         65.0900   -16.1010   166.7550 ca         1 K73      -0.106500
     11 C16         66.1800   -15.2150   166.7900 ca         1 K73      -0.112000
     12 C17         65.9770   -13.8610   167.1060 ca         1 K73      -0.112000
     13 C18         64.6820   -13.3950   167.3900 ca         1 K73      -0.112000
     14 C19         63.5920   -14.2810   167.3560 ca         1 K73      -0.106500
     15 C2          55.6200   -12.6180   165.3400 ca         1 K73      -0.100500
     16 C20         56.7840   -10.2360   164.4130 ca         1 K73      -0.103500
     17 C21         55.8370   -10.2000   165.4510 ca         1 K73      -0.100500
     18 C3          56.5670   -12.6550   164.3010 ca         1 K73      -0.103500
     19 C4          57.1530   -11.4640   163.8300 ca         1 K73      -0.115300
     20 C5          58.1800   -11.5080   162.7090 c3         1 K73       0.147300
     21 C6          60.0840   -13.0930   163.1530 c          1 K73       0.605100
     22 C7          61.4890   -13.0500   163.8380 c5         1 K73       0.026700
     23 C8          62.5380   -12.6110   162.7710 c5         1 K73      -0.085400
     24 C9          63.8450   -13.2190   163.3300 c5         1 K73      -0.096400
     25 N1          59.5090   -11.8410   163.2210 ns         1 K73      -0.501900
     26 N2          62.0360   -14.3700   164.2700 n          1 K73      -0.387800
     27 N3          61.0040   -17.7920   165.4620 n8         1 K73      -0.978200
     28 O1          60.2700   -14.8670   165.6440 o          1 K73      -0.624100
     29 H1          52.2040   -11.1780   167.3280 hn         1 K73       0.396500
     30 H2          52.7370   -10.4350   165.9960 hn         1 K73       0.396500
     31 H4          54.3380   -12.2460   167.6830 h1         1 K73       0.032200
     32 H5          54.4060   -10.4690   167.6830 h1         1 K73       0.032200
     33 H6          63.3210   -15.3040   162.8500 h1         1 K73       0.056200
     34 H7          64.0670   -15.0900   164.4540 h1         1 K73       0.056200
     35 H8          62.7600   -16.8530   164.8260 h1         1 K73       0.068700
     36 H9          61.8420   -16.3060   167.6920 hc         1 K73       0.056700
     37 H10         62.9310   -17.6000   167.2350 hc         1 K73       0.056700
     38 H11         65.2560   -17.1460   166.5010 ha         1 K73       0.116500
     39 H12         67.1820   -15.5770   166.5710 ha         1 K73       0.113000
     40 H13         66.8200   -13.1740   167.1310 ha         1 K73       0.113000
     41 H14         64.5230   -12.3460   167.6340 ha         1 K73       0.113000
     42 H15         62.5930   -13.9080   167.5720 ha         1 K73       0.116500
     43 H16         55.1740   -13.5450   165.6930 ha         1 K73       0.118500
     44 H17         57.2310    -9.3080   164.0620 ha         1 K73       0.124000
     45 H18         55.5620    -9.2440   165.8930 ha         1 K73       0.118500
     46 H19         56.8480   -13.6100   163.8630 ha         1 K73       0.124000
     47 H20         58.2310   -10.5300   162.2120 h1         1 K73       0.062700
     48 H21         57.8740   -12.2430   161.9530 h1         1 K73       0.062700
     49 H22         61.4630   -12.3570   164.6900 h1         1 K73       0.062700
     50 H23         62.5920   -11.5220   162.6570 hc         1 K73       0.061200
     51 H24         62.3100   -13.0310   161.7830 hc         1 K73       0.061200
     52 H25         64.6600   -13.2310   162.5970 hc         1 K73       0.057700
     53 H26         64.1990   -12.6630   164.2070 hc         1 K73       0.057700
     54 H27         60.0380   -11.1140   163.6860 hn         1 K73       0.310500
     55 H28         61.4380   -18.6270   165.8730 hn         1 K73       0.406000
     56 H29         60.2010   -17.6050   166.0770 hn         1 K73       0.406000
@<TRIPOS>BOND
     1     1     2 1   
     2     1    29 1   
     3     1    30 1   
     4     2     4 1   
     5     2    31 1   
     6     2    32 1   
     7     3    21 2   
     8     4    15 ar  
     9     4    17 ar  
    10     5    24 1   
    11     5    26 1   
    12     5    33 1   
    13     5    34 1   
    14     6     7 1   
    15     6    26 1   
    16     6    28 2   
    17     7     8 1   
    18     7    27 1   
    19     7    35 1   
    20     8     9 1   
    21     8    36 1   
    22     8    37 1   
    23     9    10 ar  
    24     9    14 ar  
    25    10    11 ar  
    26    10    38 1   
    27    11    12 ar  
    28    11    39 1   
    29    12    13 ar  
    30    12    40 1   
    31    13    14 ar  
    32    13    41 1   
    33    14    42 1   
    34    15    18 ar  
    35    15    43 1   
    36    16    17 ar  
    37    16    19 ar  
    38    16    44 1   
    39    17    45 1   
    40    18    19 ar  
    41    18    46 1   
    42    19    20 1   
    43    20    25 1   
    44    20    47 1   
    45    20    48 1   
    46    21    22 1   
    47    21    25 1   
    48    22    23 1   
    49    22    26 1   
    50    22    49 1   
    51    23    24 1   
    52    23    50 1   
    53    23    51 1   
    54    24    52 1   
    55    24    53 1   
    56    25    54 1   
    57    27    55 1   
    58    27    56 1   
@<TRIPOS>SUBSTRUCTURE
     1 K73         1 TEMP              0 ****  ****    0 ROOT
