@<TRIPOS>MOLECULE
K73
   56    58     1     0     0
SMALL
bcc


@<TRIPOS>ATOM
      1 N           53.8910   -12.5700   167.3840 n8         1 K73      -0.887800
      2 C           54.2510   -11.2440   166.9140 c3         1 K73       0.198100
      3 O           59.9930   -13.6840   162.3640 o          1 K73      -0.581100
      4 C1          55.3400   -11.2880   165.8710 ca         1 K73      -0.089300
      5 C10         63.3060   -14.8150   163.5260 c5         1 K73       0.109000
      6 C11         61.2580   -15.0390   164.9780 c          1 K73       0.693100
      7 C12         61.6250   -16.4600   165.3840 c3         1 K73       0.096500
      8 C13         62.1570   -16.4340   166.8350 c3         1 K73      -0.070100
      9 C14         63.3820   -15.5790   166.9940 ca         1 K73      -0.082300
     10 C15         64.6500   -16.1080   166.7560 ca         1 K73      -0.124500
     11 C16         65.7810   -15.3060   166.8250 ca         1 K73      -0.130000
     12 C17         65.6630   -13.9580   167.1360 ca         1 K73      -0.130000
     13 C18         64.4060   -13.4210   167.3840 ca         1 K73      -0.130000
     14 C19         63.2770   -14.2260   167.3140 ca         1 K73      -0.124500
     15 C2          56.3800   -12.2110   165.9460 ca         1 K73      -0.118500
     16 C20         56.3700   -10.3800   163.8800 ca         1 K73      -0.121500
     17 C21         55.3480   -10.3770   164.8200 ca         1 K73      -0.118500
     18 C3          57.4000   -12.2190   165.0050 ca         1 K73      -0.121500
     19 C4          57.4070   -11.3030   163.9570 ca         1 K73      -0.115300
     20 C5          58.4850   -11.3180   162.9000 c3         1 K73       0.147300
     21 C6          60.4070   -12.8430   163.1430 c          1 K73       0.672100
     22 C7          61.7590   -12.9840   163.8280 c5         1 K73       0.026700
     23 C8          62.9030   -12.5570   162.8950 c5         1 K73      -0.085400
     24 C9          64.0340   -13.5060   163.2680 c5         1 K73      -0.096400
     25 N1          59.7780   -11.6880   163.4180 ns         1 K73      -0.568900
     26 N2          62.0570   -14.3700   164.1370 n          1 K73      -0.454800
     27 N3          60.4530   -17.2930   165.1950 n8         1 K73      -0.867800
     28 O1          60.2570   -14.5160   165.4580 o          1 K73      -0.624100
     29 H1          53.2280   -12.4870   168.1440 hn         1 K73       0.341300
     30 H2          53.4130   -13.0720   166.6470 hn         1 K73       0.341300
     31 H4          54.6160   -10.6740   167.7740 h1         1 K73       0.032200
     32 H5          53.4070   -10.6670   166.5130 h1         1 K73       0.032200
     33 H6          63.1080   -15.3510   162.5930 h1         1 K73       0.056200
     34 H7          63.8700   -15.4690   164.1860 h1         1 K73       0.056200
     35 H8          62.4110   -16.8600   164.7410 h1         1 K73       0.068700
     36 H9          61.3560   -16.0830   167.4910 hc         1 K73       0.056700
     37 H10         62.3780   -17.4650   167.1210 hc         1 K73       0.056700
     38 H11         64.7530   -17.1590   166.5130 ha         1 K73       0.134500
     39 H12         66.7570   -15.7360   166.6360 ha         1 K73       0.131000
     40 H13         66.5430   -13.3320   167.1920 ha         1 K73       0.131000
     41 H14         64.3030   -12.3730   167.6330 ha         1 K73       0.131000
     42 H15         62.3020   -13.7980   167.5120 ha         1 K73       0.134500
     43 H16         56.3880   -12.9350   166.7510 ha         1 K73       0.136500
     44 H17         56.3550    -9.6530   163.0750 ha         1 K73       0.142000
     45 H18         54.5490    -9.6490   164.7330 ha         1 K73       0.136500
     46 H19         58.2000   -12.9440   165.0990 ha         1 K73       0.142000
     47 H20         58.5500   -10.3350   162.4270 h1         1 K73       0.062700
     48 H21         58.2260   -12.0260   162.1120 h1         1 K73       0.062700
     49 H22         61.7780   -12.3870   164.7470 h1         1 K73       0.062700
     50 H23         63.1540   -11.5060   163.0240 hc         1 K73       0.061200
     51 H24         62.6210   -12.7090   161.8510 hc         1 K73       0.061200
     52 H25         64.7890   -13.5970   162.4890 hc         1 K73       0.057700
     53 H26         64.5280   -13.1750   164.1850 hc         1 K73       0.057700
     54 H27         60.1860   -11.0760   164.1070 hn         1 K73       0.310500
     55 H28         60.6810   -18.2480   165.4450 hn         1 K73       0.350800
     56 H29         59.7180   -17.0000   165.8280 hn         1 K73       0.350800
@<TRIPOS>BOND
     1     1     2 1   
     2     1    29 1   
     3     1    30 1   
     4     2     4 1   
     5     2    31 1   
     6     2    32 1   
     7     3    21 2   
     8     4    15 ar  
     9     4    17 ar  
    10     5    24 1   
    11     5    26 1   
    12     5    33 1   
    13     5    34 1   
    14     6     7 1   
    15     6    26 1   
    16     6    28 2   
    17     7     8 1   
    18     7    27 1   
    19     7    35 1   
    20     8     9 1   
    21     8    36 1   
    22     8    37 1   
    23     9    10 ar  
    24     9    14 ar  
    25    10    11 ar  
    26    10    38 1   
    27    11    12 ar  
    28    11    39 1   
    29    12    13 ar  
    30    12    40 1   
    31    13    14 ar  
    32    13    41 1   
    33    14    42 1   
    34    15    18 ar  
    35    15    43 1   
    36    16    17 ar  
    37    16    19 ar  
    38    16    44 1   
    39    17    45 1   
    40    18    19 ar  
    41    18    46 1   
    42    19    20 1   
    43    20    25 1   
    44    20    47 1   
    45    20    48 1   
    46    21    22 1   
    47    21    25 1   
    48    22    23 1   
    49    22    26 1   
    50    22    49 1   
    51    23    24 1   
    52    23    50 1   
    53    23    51 1   
    54    24    52 1   
    55    24    53 1   
    56    25    54 1   
    57    27    55 1   
    58    27    56 1   
@<TRIPOS>SUBSTRUCTURE
     1 K73         1 TEMP              0 ****  ****    0 ROOT
