@<TRIPOS>MOLECULE
K74
   29    30     1     0     0
SMALL
No Charge or Current Charge


@<TRIPOS>ATOM
      1 C1           0.3160     1.2750     0.0150 ca         1 K74       0.049100
      2 C2          -0.6000     0.2090     0.0160 ca         1 K74       0.104400
      3 C3          -0.1680    -1.1020     0.0240 ca         1 K74      -0.047200
      4 C4           1.2120    -1.4230     0.0310 ca         1 K74       0.006100
      5 C5           2.1450    -0.3570     0.0300 ca         1 K74       0.018100
      6 C6           1.6990     0.9890     0.0220 ca         1 K74      -0.006900
      7 N13         -1.9850     0.3150     0.0100 nc         1 K74      -0.586100
      8 C15         -2.3440    -0.9740     0.0140 cd         1 K74       0.419700
      9 N17         -1.2970    -1.9040     0.0230 na         1 K74      -0.149600
     10 S20         -4.0290    -1.5150     0.0090 ss         1 K74      -0.129200
     11 C22         -4.9910     0.0740    -0.0020 c3         1 K74      -0.063400
     12 C24         -6.5100    -0.1270    -0.0080 c          1 K74       0.607100
     13 N26         -7.2410     1.0400    -0.0160 ns         1 K74      -0.497900
     14 O28         -7.0510    -1.2260    -0.0050 o          1 K74      -0.593100
     15 C30         -8.7050     1.0970    -0.0230 c3         1 K74       0.093300
     16 Br32        -0.3300     3.0870     0.0040 br         1 K74      -0.029100
     17 Br34         2.9730     2.4330     0.0210 br         1 K74      -0.032100
     18 Br36         4.0360    -0.7320     0.0400 br         1 K74      -0.031100
     19 Br38         1.8620    -3.2400     0.0420 br         1 K74      -0.049100
     20 C40         -1.3500    -3.3780     0.0300 c3         1 K74       0.058900
     21 H22         -4.7300     0.6610     0.8860 h1         1 K74       0.101200
     22 H22A        -4.7220     0.6530    -0.8930 h1         1 K74       0.101200
     23 HN26        -6.7210     1.9110    -0.0180 hn         1 K74       0.322500
     24 H30         -9.0910     0.5930    -0.9180 h1         1 K74       0.044367
     25 H30A        -9.0990     0.6010     0.8740 h1         1 K74       0.044367
     26 H30B        -9.0320     2.1450    -0.0290 h1         1 K74       0.044367
     27 H40         -0.8580    -3.7620     0.9310 h1         1 K74       0.066700
     28 H40A        -2.3890    -3.7280     0.0270 h1         1 K74       0.066700
     29 H40B        -0.8500    -3.7710    -0.8640 h1         1 K74       0.066700
@<TRIPOS>BOND
     1     1     2 ar  
     2     1     6 ar  
     3     1    16 1   
     4     2     3 ar  
     5     2     7 1   
     6     3     4 ar  
     7     3     9 1   
     8     4     5 ar  
     9     4    19 1   
    10     5     6 ar  
    11     5    18 1   
    12     6    17 1   
    13     7     8 2   
    14     8     9 1   
    15     8    10 1   
    16     9    20 1   
    17    10    11 1   
    18    11    12 1   
    19    11    21 1   
    20    11    22 1   
    21    12    13 1   
    22    12    14 2   
    23    13    15 1   
    24    13    23 1   
    25    15    24 1   
    26    15    25 1   
    27    15    26 1   
    28    20    27 1   
    29    20    28 1   
    30    20    29 1   
@<TRIPOS>SUBSTRUCTURE
     1 K74         1 TEMP              0 ****  ****    0 ROOT
