@<TRIPOS>MOLECULE
K74
   29    30     1     0     0
SMALL
bcc


@<TRIPOS>ATOM
      1 C1           0.2780     1.2820     0.0350 ca         1 K74       0.049100
      2 C2          -0.6380     0.2380     0.0370 ca         1 K74       0.104400
      3 C3          -0.2080    -1.1000     0.0310 ca         1 K74      -0.047200
      4 C4           1.1480    -1.4130     0.0320 ca         1 K74       0.006100
      5 C5           2.0620    -0.3590     0.0280 ca         1 K74       0.018100
      6 C6           1.6330     0.9830     0.0280 ca         1 K74      -0.006900
      7 N13         -1.9960     0.3080     0.0480 nc         1 K74      -0.586100
      8 C15         -2.3910    -0.9340     0.0440 cd         1 K74       0.419700
      9 N17         -1.3690    -1.8390     0.0300 na         1 K74      -0.120300
     10 S20         -4.0480    -1.4610     0.0660 ss         1 K74      -0.081300
     11 C22         -4.8460     0.1610    -0.0060 c3         1 K74      -0.111300
     12 C24         -6.3390    -0.1000     0.0220 c          1 K74       0.674100
     13 N26         -7.0990     0.9930    -0.0410 ns         1 K74      -0.564900
     14 O28         -6.7840    -1.2370     0.0960 o          1 K74      -0.593100
     15 C30         -8.5430     0.9350    -0.0230 c3         1 K74       0.093300
     16 BR32        -0.3860     3.0260     0.0420 br         1 K74      -0.029100
     17 BR34         2.8820     2.3780     0.0210 br         1 K74      -0.032100
     18 BR36         3.8980    -0.7340     0.0250 br         1 K74      -0.031100
     19 BR38         1.7420    -3.1880     0.0500 br         1 K74      -0.049100
     20 C40         -1.5350    -3.2810    -0.0040 c3         1 K74       0.029600
     21 H22         -4.5390     0.7710     0.8440 h1         1 K74       0.101200
     22 H22A        -4.5540     0.6820    -0.9180 h1         1 K74       0.101200
     23 HN26        -6.6580     1.8970    -0.1000 hn         1 K74       0.322500
     24 H30         -8.9300     0.3470    -0.8560 h1         1 K74       0.044367
     25 H30A        -8.9170     0.5060     0.9060 h1         1 K74       0.044367
     26 H30B        -8.9260     1.9470    -0.1130 h1         1 K74       0.044367
     27 H40         -1.1470    -3.7410     0.9000 h1         1 K74       0.066700
     28 H40A        -2.5940    -3.5160    -0.0740 h1         1 K74       0.066700
     29 H40B        -1.0490    -3.7050    -0.8780 h1         1 K74       0.066700
@<TRIPOS>BOND
     1     1     2 ar  
     2     1     6 ar  
     3     1    16 1   
     4     2     3 ar  
     5     2     7 1   
     6     3     4 ar  
     7     3     9 1   
     8     4     5 ar  
     9     4    19 1   
    10     5     6 ar  
    11     5    18 1   
    12     6    17 1   
    13     7     8 2   
    14     8     9 1   
    15     8    10 1   
    16     9    20 1   
    17    10    11 1   
    18    11    12 1   
    19    11    21 1   
    20    11    22 1   
    21    12    13 1   
    22    12    14 2   
    23    13    15 1   
    24    13    23 1   
    25    15    24 1   
    26    15    25 1   
    27    15    26 1   
    28    20    27 1   
    29    20    28 1   
    30    20    29 1   
@<TRIPOS>SUBSTRUCTURE
     1 K74         1 TEMP              0 ****  ****    0 ROOT
