@<TRIPOS>MOLECULE
K75
   33    35     1     0     0
SMALL
No Charge or Current Charge


@<TRIPOS>ATOM
      1 C10         13.2410    12.6270    93.9980 ca         1 K75      -0.160300
      2 C12         13.7720    12.8970    91.6500 ca         1 K75       0.080400
      3 C11         14.2100    12.6940    92.9670 ca         1 K75      -0.029000
      4 C8          15.0660    14.5190    96.3360 c1         1 K75      -0.104100
      5 C9          15.8190    15.7020    96.7650 c3         1 K75      -0.010000
      6 N1          12.3370    13.2030    90.0280 na         1 K75      -0.351600
      7 C1          13.6260    13.1820    89.5410 cc         1 K75       0.641700
      8 C2          12.4380    13.0220    91.3730 ca         1 K75      -0.063200
      9 C3          11.4460    12.9550    92.3570 ca         1 K75      -0.114000
     10 C4          11.8620    12.7550    93.6890 ca         1 K75       0.197400
     11 C5          11.2940    12.5620    95.9260 c2         1 K75       0.827100
     12 C6          13.6640    12.4070    95.4530 c6         1 K75       0.381900
     13 C7          14.4370    13.5570    95.9570 c1         1 K75      -0.161100
     14 N3          10.4770    12.0440    96.8040 nv         1 K75      -1.029200
     15 N2          10.9110    12.6640    94.7210 ne         1 K75      -0.723100
     16 N4          12.5080    12.1980    96.3160 nu         1 K75      -0.915400
     17 N5          14.5420    12.9970    90.4910 nd         1 K75      -0.642100
     18 N           13.9600    13.3290    88.2400 nu         1 K75      -0.888400
     19 C           13.0470    13.5410    87.1080 c3         1 K75       0.203100
     20 H1          15.2710    12.5950    93.1840 ha         1 K75       0.130000
     21 H2          16.1670    16.2690    95.8940 hc         1 K75       0.054367
     22 H3          15.1860    16.3560    97.3770 hc         1 K75       0.054367
     23 H4          16.6910    15.4040    97.3590 hc         1 K75       0.054367
     24 H5          11.5010    13.3300    89.4790 hn         1 K75       0.354000
     25 H6          10.3930    13.0520    92.1070 ha         1 K75       0.128000
     26 H7          14.3360    11.5370    95.5060 h1         1 K75       0.047700
     27 H8           9.5860    11.8970    96.3530 hn         1 K75       0.474000
     28 H9          10.8760    11.1890    97.1570 hn         1 K75       0.474000
     29 H10         12.6620    12.4160    97.2910 hn         1 K75       0.472000
     30 H12         14.9640    13.2860    88.0710 hn         1 K75       0.503000
     31 H13         13.6130    13.6250    86.1710 h1         1 K75       0.037700
     32 H14         12.3470    12.6990    87.0170 h1         1 K75       0.037700
     33 H15         12.4690    14.4640    87.2480 h1         1 K75       0.037700
@<TRIPOS>BOND
     1     1     3 ar  
     2     1    10 ar  
     3     1    12 1   
     4     2     3 ar  
     5     2     8 ar  
     6     2    17 1   
     7     3    20 1   
     8     4     5 1   
     9     4    13 3   
    10     5    21 1   
    11     5    22 1   
    12     5    23 1   
    13     6     7 1   
    14     6     8 1   
    15     6    24 1   
    16     7    17 2   
    17     7    18 1   
    18     8     9 ar  
    19     9    10 ar  
    20     9    25 1   
    21    10    15 1   
    22    11    14 1   
    23    11    15 2   
    24    11    16 1   
    25    12    13 1   
    26    12    16 1   
    27    12    26 1   
    28    14    27 1   
    29    14    28 1   
    30    16    29 1   
    31    18    19 1   
    32    18    30 1   
    33    19    31 1   
    34    19    32 1   
    35    19    33 1   
@<TRIPOS>SUBSTRUCTURE
     1 K75         1 TEMP              0 ****  ****    0 ROOT
