@<TRIPOS>MOLECULE
K75
   33    35     1     0     0
SMALL
bcc


@<TRIPOS>ATOM
      1 C10         13.1310    12.8560    93.9700 ca         1 K75      -0.160300
      2 C12         13.7020    13.3350    91.7000 ca         1 K75       0.080400
      3 C11         14.0580    13.3080    93.0430 ca         1 K75      -0.047000
      4 C8          15.3460    14.3880    96.2960 c1         1 K75      -0.104100
      5 C9          16.3770    15.3010    96.7640 c3         1 K75      -0.010000
      6 N1          12.3890    13.0460    89.9590 na         1 K75      -0.301300
      7 C1          13.6030    13.5470    89.5820 cc         1 K75       0.641700
      8 C2          12.4200    12.9000    91.3270 ca         1 K75      -0.063200
      9 C3          11.4820    12.4510    92.2370 ca         1 K75      -0.132000
     10 C4          11.8430    12.4290    93.5870 ca         1 K75       0.197400
     11 C5          11.1160    12.2730    95.7520 c2         1 K75       0.827100
     12 C6          13.4690    12.7060    95.4390 c6         1 K75       0.381900
     13 C7          14.4860    13.6470    95.9000 c1         1 K75      -0.161100
     14 N3          10.1480    12.0460    96.6790 nv         1 K75      -0.918800
     15 N2          10.9020    11.9880    94.5100 ne         1 K75      -0.723100
     16 N4          12.2420    12.9000    96.2010 nu         1 K75      -0.860200
     17 N5          14.4190    13.7290    90.5920 nd         1 K75      -0.642100
     18 N           13.8820    13.8490    88.2960 nu         1 K75      -0.833200
     19 C           13.0880    13.3450    87.1990 c3         1 K75       0.203100
     20 H1          15.0410    13.6350    93.3600 ha         1 K75       0.148000
     21 H2          16.5170    16.1250    96.0640 hc         1 K75       0.054367
     22 H3          16.1120    15.7250    97.7320 hc         1 K75       0.054367
     23 H4          17.3330    14.7880    96.8750 hc         1 K75       0.054367
     24 H5          11.6110    12.8330    89.3560 hn         1 K75       0.303700
     25 H6          10.4930    12.1280    91.9370 ha         1 K75       0.146000
     26 H7          13.8590    11.6900    95.6080 h1         1 K75       0.047700
     27 H8           9.3650    11.5020    96.3570 hn         1 K75       0.418800
     28 H9          10.4290    11.8430    97.6250 hn         1 K75       0.418800
     29 H10         12.3650    12.9600    97.2000 hn         1 K75       0.416800
     30 H12         14.8570    14.0130    88.1110 hn         1 K75       0.447800
     31 H13         13.4950    13.7390    86.2720 h1         1 K75       0.037700
     32 H14         13.0820    12.2530    87.1340 h1         1 K75       0.037700
     33 H15         12.0570    13.6930    87.2710 h1         1 K75       0.037700
@<TRIPOS>BOND
     1     1     3 ar  
     2     1    10 ar  
     3     1    12 1   
     4     2     3 ar  
     5     2     8 ar  
     6     2    17 1   
     7     3    20 1   
     8     4     5 1   
     9     4    13 3   
    10     5    21 1   
    11     5    22 1   
    12     5    23 1   
    13     6     7 1   
    14     6     8 1   
    15     6    24 1   
    16     7    17 2   
    17     7    18 1   
    18     8     9 ar  
    19     9    10 ar  
    20     9    25 1   
    21    10    15 1   
    22    11    14 1   
    23    11    15 2   
    24    11    16 1   
    25    12    13 1   
    26    12    16 1   
    27    12    26 1   
    28    14    27 1   
    29    14    28 1   
    30    16    29 1   
    31    18    19 1   
    32    18    30 1   
    33    19    31 1   
    34    19    32 1   
    35    19    33 1   
@<TRIPOS>SUBSTRUCTURE
     1 K75         1 TEMP              0 ****  ****    0 ROOT
