@<TRIPOS>MOLECULE
K76
   39    41     1     0     0
SMALL
No Charge or Current Charge


@<TRIPOS>ATOM
      1 F3           1.7240    -3.3910     1.0410 f          1 K76      -0.109000
      2 C13          2.8860    -3.0170     0.4580 c3         1 K76       0.361800
      3 F5           3.8790    -3.5620     1.1980 f          1 K76      -0.109000
      4 F4           2.9280    -3.6090    -0.7560 f          1 K76      -0.109000
      5 C10          3.0130    -1.4940     0.3380 ca         1 K76      -0.212800
      6 C9           4.2780    -0.8760     0.3970 ca         1 K76      -0.002000
      7 C8           4.3990     0.5240     0.2810 ca         1 K76      -0.212800
      8 C12          5.7770     1.1920     0.3390 c3         1 K76       0.361800
      9 F8           5.7240     2.4300     0.8830 f          1 K76      -0.109000
     10 F6           6.6640     0.4860     1.0780 f          1 K76      -0.109000
     11 F7           6.3090     1.3260    -0.8960 f          1 K76      -0.109000
     12 C7           3.2400     1.3030     0.0800 ca         1 K76      -0.003500
     13 C11          1.8640    -0.7000     0.1360 ca         1 K76      -0.003500
     14 C6           1.9620     0.7030     0.0060 ca         1 K76      -0.132500
     15 C5           0.7530     1.5180    -0.2070 cc         1 K76       0.592500
     16 N2           0.8470     2.8730    -0.3350 nc         1 K76      -0.684000
     17 C4          -0.4070     3.2500    -0.5080 cd         1 K76       0.445400
     18 N3          -0.4590     0.9980    -0.2840 nd         1 K76      -0.521800
     19 N1          -1.2170     2.1210    -0.4800 na         1 K76       0.008400
     20 C3          -2.6320     2.0900    -0.6280 c2         1 K76      -0.042100
     21 C2          -3.4070     0.9780    -0.5980 ce         1 K76      -0.291200
     22 C1          -4.8960     1.0450    -0.7320 c          1 K76       0.631300
     23 O           -5.5340     2.0390    -1.0620 o          1 K76      -0.600100
     24 N4          -5.1510    -0.2930    -0.2990 nj         1 K76      -0.425800
     25 C16         -6.1960    -0.0370     0.7530 cy         1 K76       0.056500
     26 C14         -6.2320    -0.6940    -1.2670 cy         1 K76       0.056500
     27 C15         -7.1030    -1.0500    -0.0190 cy         1 K76       0.154000
     28 F2          -8.4200    -0.7250    -0.1010 f          1 K76      -0.095000
     29 F1          -7.0150    -2.3420     0.4000 f          1 K76      -0.095000
     30 H1           5.1710    -1.4850     0.5280 ha         1 K76       0.145000
     31 H2           3.3380     2.3820    -0.0260 ha         1 K76       0.154500
     32 H3           0.8890    -1.1810     0.0750 ha         1 K76       0.154500
     33 H4          -0.7890     4.2540    -0.6510 h5         1 K76       0.078100
     34 H5          -3.0570     3.0850    -0.7760 h4         1 K76       0.225000
     35 H7          -2.9370     0.0080    -0.4240 ha         1 K76       0.212000
     36 H9          -5.9000    -0.3790     1.7510 h1         1 K76       0.084700
     37 H10         -6.6220     0.9740     0.8140 h1         1 K76       0.084700
     38 H11         -6.6690     0.0910    -1.8980 h1         1 K76       0.084700
     39 H12         -5.9640    -1.5610    -1.8810 h1         1 K76       0.084700
@<TRIPOS>BOND
     1     1     2 1   
     2     2     3 1   
     3     2     4 1   
     4     2     5 1   
     5     5     6 ar  
     6     5    13 ar  
     7     6     7 ar  
     8     6    30 1   
     9     7     8 1   
    10     7    12 ar  
    11     8     9 1   
    12     8    10 1   
    13     8    11 1   
    14    12    14 ar  
    15    12    31 1   
    16    13    14 ar  
    17    13    32 1   
    18    14    15 1   
    19    15    16 1   
    20    15    18 2   
    21    16    17 2   
    22    17    19 1   
    23    17    33 1   
    24    18    19 1   
    25    19    20 1   
    26    20    21 2   
    27    20    34 1   
    28    21    22 1   
    29    21    35 1   
    30    22    23 2   
    31    22    24 1   
    32    24    25 1   
    33    24    26 1   
    34    25    27 1   
    35    25    36 1   
    36    25    37 1   
    37    26    27 1   
    38    26    38 1   
    39    26    39 1   
    40    27    28 1   
    41    27    29 1   
@<TRIPOS>SUBSTRUCTURE
     1 K76         1 TEMP              0 ****  ****    0 ROOT
