@<TRIPOS>MOLECULE
K76
   39    41     1     0     0
SMALL
abcg2


@<TRIPOS>ATOM
      1 F3           1.3740    -3.3680    -0.0020 f          1 K76      -0.109000
      2 C13          2.6510    -2.9850     0.0040 c3         1 K76       0.361800
      3 F5           3.2250    -3.5320     1.0830 f          1 K76      -0.109000
      4 F4           3.2370    -3.5400    -1.0650 f          1 K76      -0.109000
      5 C10          2.8090    -1.4940    -0.0010 ca         1 K76      -0.212800
      6 C9           4.0970    -0.9720     0.0210 ca         1 K76      -0.002000
      7 C8           4.2720     0.4030     0.0180 ca         1 K76      -0.212800
      8 C12          5.6630     0.9640    -0.0040 c3         1 K76       0.361800
      9 F8           5.7080     2.2210     0.4420 f          1 K76      -0.109000
     10 F6           6.5010     0.2440     0.7490 f          1 K76      -0.109000
     11 F7           6.1650     0.9690    -1.2460 f          1 K76      -0.109000
     12 C7           3.1760     1.2520    -0.0120 ca         1 K76      -0.003500
     13 C11          1.7090    -0.6560    -0.0260 ca         1 K76      -0.003500
     14 C6           1.8910     0.7250    -0.0320 ca         1 K76      -0.132500
     15 C5           0.7410     1.6260    -0.0560 cc         1 K76       0.592500
     16 N2           0.8640     2.9790    -0.0670 nc         1 K76      -0.684000
     17 C4          -0.3700     3.3920    -0.0890 cd         1 K76       0.445400
     18 N3          -0.4990     1.2010    -0.0690 nd         1 K76      -0.521800
     19 N1          -1.2080     2.3340    -0.0900 na         1 K76       0.008400
     20 C3          -2.5930     2.3690    -0.1140 c2         1 K76      -0.042100
     21 C2          -3.3690     1.2890    -0.1140 ce         1 K76      -0.291200
     22 C1          -4.8350     1.4620    -0.1520 c          1 K76       0.631300
     23 O           -5.3880     2.5560    -0.1720 o          1 K76      -0.600100
     24 N4          -5.5380     0.3240    -0.1680 nj         1 K76      -0.425800
     25 C16         -6.9780     0.1440    -0.2190 cy         1 K76       0.056500
     26 C14         -5.2020    -1.0940    -0.1490 cy         1 K76       0.056500
     27 C15         -6.7100    -1.3640    -0.2100 cy         1 K76       0.154000
     28 F2          -7.1260    -2.0260    -1.3100 f          1 K76      -0.095000
     29 F1          -7.2150    -2.0300     0.8510 f          1 K76      -0.095000
     30 H1           4.9530    -1.6330     0.0420 ha         1 K76       0.145000
     31 H2           3.3020     2.3270    -0.0180 ha         1 K76       0.154500
     32 H3           0.7050    -1.0560    -0.0410 ha         1 K76       0.154500
     33 H4          -0.7150     4.4150    -0.1030 h5         1 K76       0.078100
     34 H5          -2.9990     3.3720    -0.1340 h4         1 K76       0.225000
     35 H7          -2.9420     0.2940    -0.0920 ha         1 K76       0.212000
     36 H9          -7.5120     0.5210     0.6550 h1         1 K76       0.084700
     37 H10         -7.4480     0.5210    -1.1290 h1         1 K76       0.084700
     38 H11         -4.6440    -1.4440    -1.0190 h1         1 K76       0.084700
     39 H12         -4.7180    -1.4350     0.7670 h1         1 K76       0.084700
@<TRIPOS>BOND
     1     1     2 1   
     2     2     3 1   
     3     2     4 1   
     4     2     5 1   
     5     5     6 ar  
     6     5    13 ar  
     7     6     7 ar  
     8     6    30 1   
     9     7     8 1   
    10     7    12 ar  
    11     8     9 1   
    12     8    10 1   
    13     8    11 1   
    14    12    14 ar  
    15    12    31 1   
    16    13    14 ar  
    17    13    32 1   
    18    14    15 1   
    19    15    16 1   
    20    15    18 2   
    21    16    17 2   
    22    17    19 1   
    23    17    33 1   
    24    18    19 1   
    25    19    20 1   
    26    20    21 2   
    27    20    34 1   
    28    21    22 1   
    29    21    35 1   
    30    22    23 2   
    31    22    24 1   
    32    24    25 1   
    33    24    26 1   
    34    25    27 1   
    35    25    36 1   
    36    25    37 1   
    37    26    27 1   
    38    26    38 1   
    39    26    39 1   
    40    27    28 1   
    41    27    29 1   
@<TRIPOS>SUBSTRUCTURE
     1 K76         1 TEMP              0 ****  ****    0 ROOT
