@<TRIPOS>MOLECULE
K78
   49    50     1     0     0
SMALL
No Charge or Current Charge


@<TRIPOS>ATOM
      1 C1          -4.8890     3.0580    -1.1370 c3         1 K78      -0.083433
      2 C2          -4.4750     2.6200     0.2940 c3         1 K78       0.009300
      3 C3          -3.9390     3.8510     1.0750 c3         1 K78      -0.083433
      4 C4          -5.7490     2.1090     1.0240 c3         1 K78      -0.083433
      5 C5          -3.3560     1.5480     0.1980 ca         1 K78      -0.114300
      6 C6          -2.1330     1.8740    -0.4370 ca         1 K78      -0.050000
      7 C7          -1.0860     0.9380    -0.5490 ca         1 K78      -0.203300
      8 C8          -1.2630    -0.3540    -0.0230 ca         1 K78       0.202100
      9 C9          -2.4700    -0.7040     0.6070 ca         1 K78      -0.079900
     10 C10         -3.5070     0.2370     0.7170 ca         1 K78      -0.038000
     11 Br          -2.7260    -2.4610     1.3380 br         1 K78      -0.090100
     12 O12         -0.2360    -1.2380    -0.1130 oh         1 K78      -0.552100
     13 C13          0.1930     1.3210    -1.2900 c3         1 K78       0.205100
     14 N14          1.3830     0.8050    -0.5850 n7         1 K78      -0.887400
     15 C15          2.6530     0.9630    -1.3150 c3         1 K78       0.157800
     16 C16          3.8100     0.3800    -0.4830 c3         1 K78      -0.081400
     17 C17          5.1770     0.4990    -1.1890 c3         1 K78      -0.029100
     18 C18          6.3070    -0.0850    -0.3510 ca         1 K78      -0.082300
     19 C19          6.6480    -1.4470    -0.4660 ca         1 K78      -0.106000
     20 C20          7.6880    -1.9860     0.3100 ca         1 K78      -0.108500
     21 C21          8.3930    -1.1670     1.2090 ca         1 K78      -0.109000
     22 C22          8.0560     0.1920     1.3300 ca         1 K78      -0.108500
     23 C23          7.0160     0.7310     0.5530 ca         1 K78      -0.106000
     24 H11C        -4.0550     3.5180    -1.6780 hc         1 K78       0.035033
     25 H12C        -5.2350     2.1950    -1.7200 hc         1 K78       0.035033
     26 H13C        -5.7040     3.7910    -1.1020 hc         1 K78       0.035033
     27 H31C        -4.7200     4.6120     1.1910 hc         1 K78       0.035033
     28 H32C        -3.6030     3.5560     2.0770 hc         1 K78       0.035033
     29 H33C        -3.0940     4.3220     0.5610 hc         1 K78       0.035033
     30 H41C        -6.1920     1.2550     0.4980 hc         1 K78       0.035033
     31 H42C        -5.5200     1.8070     2.0540 hc         1 K78       0.035033
     32 H43C        -6.5120     2.8960     1.0750 hc         1 K78       0.035033
     33 H6          -1.9890     2.8670    -0.8570 ha         1 K78       0.108000
     34 H10         -4.4200    -0.0760     1.2130 ha         1 K78       0.128000
     35 H131         0.1390     0.9020    -2.3050 h1         1 K78       0.045200
     36 H132         0.2530     2.4140    -1.3920 h1         1 K78       0.045200
     37 H12          0.5390    -0.6530    -0.3590 ho         1 K78       0.519000
     38 H14          1.4650     1.3330     0.2970 hn         1 K78       0.425000
     39 H151         2.6070     0.4410    -2.2800 h1         1 K78       0.037200
     40 H152         2.8520     2.0250    -1.5160 h1         1 K78       0.037200
     41 H161         3.8600     0.8970     0.4830 hc         1 K78       0.053700
     42 H162         3.6060    -0.6770    -0.2730 hc         1 K78       0.053700
     43 H171         5.1270    -0.0120    -2.1590 hc         1 K78       0.046200
     44 H172         5.3780     1.5540    -1.4090 hc         1 K78       0.046200
     45 H19          6.1060    -2.0880    -1.1580 ha         1 K78       0.110000
     46 H23          6.7600     1.7830     0.6550 ha         1 K78       0.110000
     47 H20          7.9470    -3.0390     0.2170 ha         1 K78       0.112500
     48 H21          9.1980    -1.5850     1.8100 ha         1 K78       0.113000
     49 H22          8.6000     0.8260     2.0260 ha         1 K78       0.112500
@<TRIPOS>BOND
     1     1     2 1   
     2     1    24 1   
     3     1    25 1   
     4     1    26 1   
     5     2     3 1   
     6     2     4 1   
     7     2     5 1   
     8     3    27 1   
     9     3    28 1   
    10     3    29 1   
    11     4    30 1   
    12     4    31 1   
    13     4    32 1   
    14     5     6 ar  
    15     5    10 ar  
    16     6     7 ar  
    17     6    33 1   
    18     7     8 ar  
    19     7    13 1   
    20     8     9 ar  
    21     8    12 1   
    22     9    10 ar  
    23     9    11 1   
    24    10    34 1   
    25    12    37 1   
    26    13    14 1   
    27    13    35 1   
    28    13    36 1   
    29    14    15 1   
    30    14    38 1   
    31    15    16 1   
    32    15    39 1   
    33    15    40 1   
    34    16    17 1   
    35    16    41 1   
    36    16    42 1   
    37    17    18 1   
    38    17    43 1   
    39    17    44 1   
    40    18    19 ar  
    41    18    23 ar  
    42    19    20 ar  
    43    19    45 1   
    44    20    21 ar  
    45    20    47 1   
    46    21    22 ar  
    47    21    48 1   
    48    22    23 ar  
    49    22    49 1   
    50    23    46 1   
@<TRIPOS>SUBSTRUCTURE
     1 K78         1 TEMP              0 ****  ****    0 ROOT
