@<TRIPOS>MOLECULE
K78
   49    50     1     0     0
SMALL
bcc


@<TRIPOS>ATOM
      1 C1          -4.8130     2.9860    -1.2410 c3         1 K78      -0.083433
      2 C2          -4.4890     2.5990     0.2080 c3         1 K78       0.009300
      3 C3          -4.0550     3.8490     0.9840 c3         1 K78      -0.083433
      4 C4          -5.7610     2.0480     0.8490 c3         1 K78      -0.083433
      5 C5          -3.3540     1.5800     0.2100 ca         1 K78      -0.114300
      6 C6          -2.1120     1.9140    -0.3350 ca         1 K78      -0.068000
      7 C7          -1.0500     1.0280    -0.3840 ca         1 K78      -0.203300
      8 C8          -1.1960    -0.2630     0.1540 ca         1 K78       0.202100
      9 C9          -2.4280    -0.5940     0.7080 ca         1 K78      -0.079900
     10 C10         -3.4910     0.3000     0.7310 ca         1 K78      -0.056000
     11 BR          -2.6480    -2.3190     1.4460 br         1 K78      -0.090100
     12 O12         -0.1990    -1.1510     0.1340 oh         1 K78      -0.513100
     13 C13          0.2380     1.4080    -1.0670 c3         1 K78       0.205100
     14 N14          1.3960     0.8520    -0.3730 n7         1 K78      -0.832200
     15 C15          2.6330     0.9650    -1.1340 c3         1 K78       0.157800
     16 C16          3.8040     0.3590    -0.3820 c3         1 K78      -0.081400
     17 C17          5.1070     0.4760    -1.1740 c3         1 K78      -0.029100
     18 C18          6.2760    -0.1070    -0.4300 ca         1 K78      -0.082300
     19 C19          6.6530    -1.4350    -0.6140 ca         1 K78      -0.124000
     20 C20          7.7100    -1.9820     0.1020 ca         1 K78      -0.126500
     21 C21          8.4080    -1.2070     1.0180 ca         1 K78      -0.127000
     22 C22          8.0410     0.1190     1.2120 ca         1 K78      -0.126500
     23 C23          6.9840     0.6610     0.4930 ca         1 K78      -0.124000
     24 H11C        -3.9510     3.4170    -1.7520 hc         1 K78       0.035033
     25 H12C        -5.1400     2.1160    -1.8140 hc         1 K78       0.035033
     26 H13C        -5.6160     3.7250    -1.2700 hc         1 K78       0.035033
     27 H31C        -4.8540     4.5930     0.9850 hc         1 K78       0.035033
     28 H32C        -3.8220     3.6070     2.0230 hc         1 K78       0.035033
     29 H33C        -3.1720     4.3190     0.5460 hc         1 K78       0.035033
     30 H41C        -6.1410     1.1750     0.3140 hc         1 K78       0.035033
     31 H42C        -5.6090     1.7660     1.8930 hc         1 K78       0.035033
     32 H43C        -6.5430     2.8090     0.8270 hc         1 K78       0.035033
     33 H6          -1.9570     2.9030    -0.7530 ha         1 K78       0.126000
     34 H10         -4.4280    -0.0180     1.1680 ha         1 K78       0.146000
     35 H131         0.2400     0.9950    -2.0810 h1         1 K78       0.045200
     36 H132         0.2980     2.4970    -1.1770 h1         1 K78       0.045200
     37 H12          0.6360    -0.6220    -0.0530 ho         1 K78       0.480000
     38 H14          1.5070     1.3260     0.5180 hn         1 K78       0.369800
     39 H151         2.4920     0.4410    -2.0830 h1         1 K78       0.037200
     40 H152         2.8540     2.0120    -1.3830 h1         1 K78       0.037200
     41 H161         3.9240     0.8600     0.5850 hc         1 K78       0.053700
     42 H162         3.5960    -0.6930    -0.1670 hc         1 K78       0.053700
     43 H171         4.9900    -0.0280    -2.1370 hc         1 K78       0.046200
     44 H172         5.3020     1.5290    -1.3950 hc         1 K78       0.046200
     45 H19          6.1170    -2.0490    -1.3290 ha         1 K78       0.128000
     46 H23          6.7070     1.6980     0.6480 ha         1 K78       0.128000
     47 H20          7.9900    -3.0160    -0.0580 ha         1 K78       0.130500
     48 H21          9.2350    -1.6310     1.5740 ha         1 K78       0.131000
     49 H22          8.5790     0.7340     1.9210 ha         1 K78       0.130500
@<TRIPOS>BOND
     1     1     2 1   
     2     1    24 1   
     3     1    25 1   
     4     1    26 1   
     5     2     3 1   
     6     2     4 1   
     7     2     5 1   
     8     3    27 1   
     9     3    28 1   
    10     3    29 1   
    11     4    30 1   
    12     4    31 1   
    13     4    32 1   
    14     5     6 ar  
    15     5    10 ar  
    16     6     7 ar  
    17     6    33 1   
    18     7     8 ar  
    19     7    13 1   
    20     8     9 ar  
    21     8    12 1   
    22     9    10 ar  
    23     9    11 1   
    24    10    34 1   
    25    12    37 1   
    26    13    14 1   
    27    13    35 1   
    28    13    36 1   
    29    14    15 1   
    30    14    38 1   
    31    15    16 1   
    32    15    39 1   
    33    15    40 1   
    34    16    17 1   
    35    16    41 1   
    36    16    42 1   
    37    17    18 1   
    38    17    43 1   
    39    17    44 1   
    40    18    19 ar  
    41    18    23 ar  
    42    19    20 ar  
    43    19    45 1   
    44    20    21 ar  
    45    20    47 1   
    46    21    22 ar  
    47    21    48 1   
    48    22    23 ar  
    49    22    49 1   
    50    23    46 1   
@<TRIPOS>SUBSTRUCTURE
     1 K78         1 TEMP              0 ****  ****    0 ROOT
