@<TRIPOS>MOLECULE
K7A
   15    15     1     0     0
SMALL
bcc


@<TRIPOS>ATOM
      1 C10         -0.2150     0.4910     0.0950 ca         1 K7A       0.335500
      2 C02          1.7770    -1.1100     0.1160 c          1 K7A       0.840100
      3 C04          0.2890    -0.8110     0.0490 ca         1 K7A       0.231500
      4 C06         -1.8440    -1.6310    -0.0000 ca         1 K7A       0.198900
      5 C07         -2.3370    -0.3260     0.0650 ca         1 K7A       0.458300
      6 C11          0.6400     1.7450     0.0490 c          1 K7A       0.873100
      7 N05         -0.5450    -1.8470    -0.0090 nb         1 K7A      -0.625000
      8 N09         -1.5310     0.7120     0.1050 nb         1 K7A      -0.753000
      9 O01          2.1610    -2.1630    -0.4220 o          1 K7A      -0.820800
     10 O03          2.4670    -0.2750     0.7290 o          1 K7A      -0.820800
     11 O08         -3.6560    -0.1270     0.0850 oh         1 K7A      -0.655300
     12 O12          0.6200     2.4630     1.0610 o          1 K7A      -0.829300
     13 O13          1.1970     1.9580    -1.0420 o          1 K7A      -0.829300
     14 H2          -2.5130    -2.4830    -0.0440 h4         1 K7A      -0.017900
     15 H1          -3.8260     0.8240     0.1300 ho         1 K7A       0.415000
@<TRIPOS>BOND
     1     1     3 ar  
     2     1     6 1   
     3     1     8 ar  
     4     2     3 1   
     5     2     9 1   
     6     2    10 1   
     7     3     7 ar  
     8     4     5 ar  
     9     4     7 ar  
    10     4    14 1   
    11     5     8 ar  
    12     5    11 1   
    13     6    12 1   
    14     6    13 1   
    15    11    15 1   
@<TRIPOS>SUBSTRUCTURE
     1 K7A         1 TEMP              0 ****  ****    0 ROOT
