@<TRIPOS>MOLECULE
K7A
   15    15     1     0     0
SMALL
No Charge or Current Charge


@<TRIPOS>ATOM
      1 C10         -0.2730     0.5000     0.0700 ca         1 K7A       0.335500
      2 C02          1.7840    -1.0250     0.0910 c          1 K7A       0.629500
      3 C04          0.2650    -0.8250     0.0440 ca         1 K7A       0.231500
      4 C06         -1.8880    -1.6930     0.0340 ca         1 K7A       0.198900
      5 C07         -2.4120    -0.3700     0.0920 ca         1 K7A       0.458300
      6 C11          0.6850     1.7100     0.0150 c          1 K7A       0.662500
      7 N05         -0.5530    -1.9390     0.0120 nb         1 K7A      -0.625000
      8 N09         -1.6420     0.7250     0.1070 nb         1 K7A      -0.753000
      9 O01          2.3090    -1.7850    -0.7170 o          1 K7A      -0.715500
     10 O03          2.4120    -0.5110     1.0110 o          1 K7A      -0.715500
     11 O08         -3.7310    -0.0940     0.1240 oh         1 K7A      -0.694300
     12 O12          0.5490     2.6190     0.8320 o          1 K7A      -0.724000
     13 O13          1.4810     1.7890    -0.9180 o          1 K7A      -0.724000
     14 H2          -2.5440    -2.5640     0.0140 h4         1 K7A      -0.017900
     15 H1          -3.7580     0.8840     0.1560 ho         1 K7A       0.454000
@<TRIPOS>BOND
     1     1     3 ar  
     2     1     6 1   
     3     1     8 ar  
     4     2     3 1   
     5     2     9 1   
     6     2    10 1   
     7     3     7 ar  
     8     4     5 ar  
     9     4     7 ar  
    10     4    14 1   
    11     5     8 ar  
    12     5    11 1   
    13     6    12 1   
    14     6    13 1   
    15    11    15 1   
@<TRIPOS>SUBSTRUCTURE
     1 K7A         1 TEMP              0 ****  ****    0 ROOT
