@<TRIPOS>MOLECULE
K7C
   62    66     1     0     0
SMALL
No Charge or Current Charge


@<TRIPOS>ATOM
      1 C01          1.2940     3.6760    13.0500 ca         1 K7C      -0.115300
      2 C02          0.0720     3.2570    12.4740 ca         1 K7C       0.395300
      3 N03         -1.0410     3.1390    13.2240 nb         1 K7C      -0.678000
      4 C04         -1.0650     3.3880    14.5550 ca         1 K7C       0.439300
      5 C05          0.1460     3.7670    15.2090 ca         1 K7C      -0.200500
      6 C06          1.3320     3.9330    14.4430 cp         1 K7C       0.022000
      7 C07          2.5980     4.3480    15.1170 cp         1 K7C      -0.083000
      8 C10         -2.8270     4.4850    16.1440 c5         1 K7C      -0.066400
      9 C11         -2.8930     5.6370    15.1050 c5         1 K7C      -0.079900
     10 C13         -3.6350     3.4520    14.2200 c5         1 K7C      -0.066400
     11 C15         -1.1400     1.9070    10.6270 c5         1 K7C      -0.067900
     12 C16         -2.3400     2.7370    10.0990 c5         1 K7C      -0.078900
     13 C17         -1.6020     3.8030     9.2570 c5         1 K7C      -0.078900
     14 C18         -0.5730     4.3140    10.2950 c5         1 K7C      -0.067900
     15 C19          2.5490     3.8180    12.1750 c3         1 K7C      -0.044800
     16 C20         -2.6280     1.8740    16.0100 c3         1 K7C       0.163600
     17 C27          3.3080     3.4420    15.9410 ca         1 K7C      -0.070500
     18 C28          4.4870     3.8390    16.5950 ca         1 K7C      -0.150500
     19 C08          0.2030     3.9930    16.6510 cc         1 K7C       0.468000
     20 C09         -2.4690     3.2300    15.2650 c5         1 K7C      -0.100300
     21 C12         -3.5740     4.9740    13.8690 c5         1 K7C      -0.079900
     22 C14         -0.0420     2.9910    10.9500 c5         1 K7C      -0.123000
     23 O21         -2.5950     0.8020    15.0500 os         1 K7C      -0.448000
     24 N23          0.5720     5.1570    17.2690 na         1 K7C      -0.207700
     25 N24          0.6120     4.9870    18.6140 nc         1 K7C      -0.203800
     26 N25          0.2930     3.7340    18.7920 nd         1 K7C      -0.049000
     27 N26          0.0630     3.0910    17.5990 nd         1 K7C      -0.388000
     28 C29          4.9680     5.1470    16.4320 ca         1 K7C       0.182000
     29 C30          4.2790     6.0610    15.6220 ca         1 K7C      -0.150500
     30 C31          3.0990     5.6640    14.9680 ca         1 K7C      -0.070500
     31 F32          6.1020     5.5280    17.0610 f          1 K7C      -0.173000
     32 H34         -3.8040     4.3570    16.6270 hc         1 K7C       0.052450
     33 H33         -2.1470     4.7030    16.9680 hc         1 K7C       0.052450
     34 H35         -3.4640     6.4940    15.4810 hc         1 K7C       0.041700
     35 H36         -1.8930     6.0100    14.8530 hc         1 K7C       0.041700
     36 H40         -3.5720     2.8110    13.3330 hc         1 K7C       0.052450
     37 H39         -4.6060     3.2130    14.6700 hc         1 K7C       0.052450
     38 H42         -1.4070     1.2630    11.4720 hc         1 K7C       0.048200
     39 H45         -3.0330     2.1340     9.5010 hc         1 K7C       0.044450
     40 H44         -2.9170     3.1890    10.9150 hc         1 K7C       0.044450
     41 H47         -1.1150     3.3680     8.3760 hc         1 K7C       0.044450
     42 H46         -2.2710     4.5980     8.9070 hc         1 K7C       0.044450
     43 H49         -1.0610     4.9730    11.0240 hc         1 K7C       0.048200
     44 H48          0.2290     4.8980     9.8310 hc         1 K7C       0.048200
     45 H52          2.3720     4.5040    11.3380 hc         1 K7C       0.049033
     46 H51          3.4210     4.2010    12.7140 hc         1 K7C       0.049033
     47 H50          2.8470     2.8480    11.7590 hc         1 K7C       0.049033
     48 H53         -1.8360     1.7440    16.7530 h1         1 K7C       0.038200
     49 H54         -3.5870     1.8710    16.5450 h1         1 K7C       0.038200
     50 H57         -2.7010    -1.2730    14.8290 h1         1 K7C       0.029033
     51 H56         -1.9240    -0.7170    16.3290 h1         1 K7C       0.029033
     52 H55         -3.6940    -0.6070    16.1450 h1         1 K7C       0.029033
     53 H59          2.9360     2.4270    16.0720 ha         1 K7C       0.126500
     54 H60          5.0270     3.1370    17.2260 ha         1 K7C       0.137500
     55 H37         -4.5780     5.3780    13.6910 hc         1 K7C       0.041700
     56 H38         -2.9960     5.1600    12.9560 hc         1 K7C       0.041700
     57 H41          0.9030     2.6760    10.4970 hc         1 K7C       0.054700
     58 H58          0.7990     6.0420    16.8310 hn         1 K7C       0.388000
     59 H61          4.6580     7.0720    15.5010 ha         1 K7C       0.137500
     60 H62          2.5660     6.3760    14.3410 ha         1 K7C       0.126500
     61 H43         -0.7800     1.2310     9.8410 hc         1 K7C       0.048200
     62 C22         -2.7350    -0.5100    15.6180 c3         1 K7C       0.145900
@<TRIPOS>BOND
     1     1     2 ar  
     2     1     6 ar  
     3     1    15 1   
     4     2     3 ar  
     5     2    22 1   
     6     3     4 ar  
     7     4     5 ar  
     8     4    20 1   
     9     5     6 ar  
    10     5    19 1   
    11     6     7 1   
    12     7    17 ar  
    13     7    30 ar  
    14     8     9 1   
    15     8    20 1   
    16     8    32 1   
    17     8    33 1   
    18     9    21 1   
    19     9    34 1   
    20     9    35 1   
    21    10    20 1   
    22    10    21 1   
    23    10    36 1   
    24    10    37 1   
    25    11    12 1   
    26    11    22 1   
    27    11    38 1   
    28    11    61 1   
    29    12    13 1   
    30    12    39 1   
    31    12    40 1   
    32    13    14 1   
    33    13    41 1   
    34    13    42 1   
    35    14    22 1   
    36    14    43 1   
    37    14    44 1   
    38    15    45 1   
    39    15    46 1   
    40    15    47 1   
    41    16    20 1   
    42    16    23 1   
    43    16    48 1   
    44    16    49 1   
    45    17    18 ar  
    46    17    53 1   
    47    18    28 ar  
    48    18    54 1   
    49    19    24 1   
    50    19    27 2   
    51    21    55 1   
    52    21    56 1   
    53    22    57 1   
    54    23    62 1   
    55    24    25 1   
    56    24    58 1   
    57    25    26 2   
    58    26    27 1   
    59    28    29 ar  
    60    28    31 1   
    61    29    30 ar  
    62    29    59 1   
    63    30    60 1   
    64    50    62 1   
    65    51    62 1   
    66    52    62 1   
@<TRIPOS>SUBSTRUCTURE
     1 K7C         1 TEMP              0 ****  ****    0 ROOT
