@<TRIPOS>MOLECULE
K7C
   62    66     1     0     0
SMALL
abcg2


@<TRIPOS>ATOM
      1 C01          1.2850     3.6920    13.0470 ca         1 K7C      -0.115300
      2 C02          0.0450     3.3800    12.4810 ca         1 K7C       0.395300
      3 N03         -1.0620     3.3050    13.2040 nb         1 K7C      -0.678000
      4 C04         -1.0750     3.4930    14.5130 ca         1 K7C       0.439300
      5 C05          0.1270     3.7860    15.1720 ca         1 K7C      -0.200500
      6 C06          1.3090     3.8960    14.4260 cp         1 K7C       0.022000
      7 C07          2.5750     4.2280    15.1290 cp         1 K7C      -0.083000
      8 C10         -2.7780     4.5800    16.0760 c5         1 K7C      -0.066400
      9 C11         -3.0860     5.6980    15.0770 c5         1 K7C      -0.079900
     10 C13         -3.5820     3.4850    14.1630 c5         1 K7C      -0.066400
     11 C15         -1.0460     1.9400    10.6630 c5         1 K7C      -0.067900
     12 C16         -2.2570     2.5210     9.9290 c5         1 K7C      -0.078900
     13 C17         -1.7000     3.7650     9.2460 c5         1 K7C      -0.078900
     14 C18         -0.8080     4.3680    10.3260 c5         1 K7C      -0.067900
     15 C19          2.5220     3.7790    12.2010 c3         1 K7C      -0.044800
     16 C20         -2.5340     2.0560    15.9680 c3         1 K7C       0.163600
     17 C27          3.2450     3.2610    15.8720 ca         1 K7C      -0.070500
     18 C28          4.4090     3.5740    16.5610 ca         1 K7C      -0.150500
     19 C08          0.2460     3.9860    16.6230 cc         1 K7C       0.468000
     20 C09         -2.4420     3.3650    15.1910 c5         1 K7C      -0.100300
     21 C12         -3.6870     4.9810    13.8490 c5         1 K7C      -0.079900
     22 C14         -0.1350     3.1490    11.0050 c5         1 K7C      -0.123000
     23 O21         -2.3060     0.9780    15.0970 os         1 K7C      -0.448000
     24 N23          0.4900     5.1560    17.2190 na         1 K7C      -0.207700
     25 N24          0.6140     4.9660    18.5190 nc         1 K7C      -0.203800
     26 N25          0.4560     3.7170    18.7150 nd         1 K7C      -0.049000
     27 N26          0.2320     3.0750    17.5690 nd         1 K7C      -0.388000
     28 C29          4.8870     4.8680    16.4970 ca         1 K7C       0.182000
     29 C30          4.2490     5.8510    15.7650 ca         1 K7C      -0.150500
     30 C31          3.0910     5.5200    15.0790 ca         1 K7C      -0.070500
     31 F32          6.0060     5.1800    17.1680 f          1 K7C      -0.173000
     32 H34         -3.6760     4.3330    16.6500 hc         1 K7C       0.052450
     33 H33         -2.0220     4.8550    16.8060 hc         1 K7C       0.052450
     34 H35         -3.7580     6.4440    15.5020 hc         1 K7C       0.041700
     35 H36         -2.1670     6.2230    14.8050 hc         1 K7C       0.041700
     36 H40         -3.4490     2.8680    13.2780 hc         1 K7C       0.052450
     37 H39         -4.4970     3.1500    14.6600 hc         1 K7C       0.052450
     38 H42         -1.3320     1.3700    11.5470 hc         1 K7C       0.048200
     39 H45         -2.7100     1.8110     9.2350 hc         1 K7C       0.044450
     40 H44         -3.0300     2.8110    10.6480 hc         1 K7C       0.044450
     41 H47         -1.1050     3.4790     8.3740 hc         1 K7C       0.044450
     42 H46         -2.4720     4.4550     8.9020 hc         1 K7C       0.044450
     43 H49         -1.4330     4.8990    11.0480 hc         1 K7C       0.048200
     44 H48         -0.0760     5.0810     9.9430 hc         1 K7C       0.048200
     45 H52          2.4110     4.5260    11.4140 hc         1 K7C       0.049033
     46 H51          3.4000     4.0440    12.7840 hc         1 K7C       0.049033
     47 H50          2.7320     2.8270    11.7120 hc         1 K7C       0.049033
     48 H53         -1.8190     2.0380    16.7990 h1         1 K7C       0.038200
     49 H54         -3.5390     1.9920    16.4130 h1         1 K7C       0.038200
     50 H57         -2.1940    -1.0440    15.0100 h1         1 K7C       0.029033
     51 H56         -1.6550    -0.3590    16.5540 h1         1 K7C       0.029033
     52 H55         -3.3840    -0.4390    16.1760 h1         1 K7C       0.029033
     53 H59          2.8580     2.2510    15.9180 ha         1 K7C       0.126500
     54 H60          4.9300     2.8220    17.1380 ha         1 K7C       0.137500
     55 H37         -4.7220     5.2740    13.6710 hc         1 K7C       0.041700
     56 H38         -3.1320     5.2290    12.9430 hc         1 K7C       0.041700
     57 H41          0.8400     2.9900    10.5440 hc         1 K7C       0.054700
     58 H58          0.5680     6.0810    16.8160 hn         1 K7C       0.388000
     59 H61          4.6450     6.8580    15.7330 ha         1 K7C       0.137500
     60 H62          2.5790     6.2820    14.5050 ha         1 K7C       0.126500
     61 H43         -0.5040     1.2590    10.0050 hc         1 K7C       0.048200
     62 C22         -2.3900    -0.2640    15.7450 c3         1 K7C       0.145900
@<TRIPOS>BOND
     1     1     2 ar  
     2     1     6 ar  
     3     1    15 1   
     4     2     3 ar  
     5     2    22 1   
     6     3     4 ar  
     7     4     5 ar  
     8     4    20 1   
     9     5     6 ar  
    10     5    19 1   
    11     6     7 1   
    12     7    17 ar  
    13     7    30 ar  
    14     8     9 1   
    15     8    20 1   
    16     8    32 1   
    17     8    33 1   
    18     9    21 1   
    19     9    34 1   
    20     9    35 1   
    21    10    20 1   
    22    10    21 1   
    23    10    36 1   
    24    10    37 1   
    25    11    12 1   
    26    11    22 1   
    27    11    38 1   
    28    11    61 1   
    29    12    13 1   
    30    12    39 1   
    31    12    40 1   
    32    13    14 1   
    33    13    41 1   
    34    13    42 1   
    35    14    22 1   
    36    14    43 1   
    37    14    44 1   
    38    15    45 1   
    39    15    46 1   
    40    15    47 1   
    41    16    20 1   
    42    16    23 1   
    43    16    48 1   
    44    16    49 1   
    45    17    18 ar  
    46    17    53 1   
    47    18    28 ar  
    48    18    54 1   
    49    19    24 1   
    50    19    27 2   
    51    21    55 1   
    52    21    56 1   
    53    22    57 1   
    54    23    62 1   
    55    24    25 1   
    56    24    58 1   
    57    25    26 2   
    58    26    27 1   
    59    28    29 ar  
    60    28    31 1   
    61    29    30 ar  
    62    29    59 1   
    63    30    60 1   
    64    50    62 1   
    65    51    62 1   
    66    52    62 1   
@<TRIPOS>SUBSTRUCTURE
     1 K7C         1 TEMP              0 ****  ****    0 ROOT
