@<TRIPOS>MOLECULE
K7D
   30    32     1     0     0
SMALL
No Charge or Current Charge


@<TRIPOS>ATOM
      1 C10         -3.6220    -0.1900    -0.9370 ca         1 K7D      -0.107500
      2 C13         -3.9090     1.8740     0.9450 ca         1 K7D      -0.115000
      3 C15         -1.6480    -2.3160     0.2180 ca         1 K7D      -0.052000
      4 C17          0.7500    -2.7410     0.2000 ca         1 K7D      -0.017000
      5 C04          2.4310     0.6660    -0.1000 cc         1 K7D      -0.296400
      6 C05          1.3030     1.4820    -0.1760 cd         1 K7D       0.013000
      7 C07         -0.0770    -0.4800     0.0060 ca         1 K7D       0.342000
      8 C08         -1.4310    -0.9230     0.0890 cp         1 K7D      -0.141000
      9 C09         -2.6180    -0.0100     0.0430 cp         1 K7D      -0.014000
     10 C11         -4.7460     0.6530    -0.9840 ca         1 K7D      -0.115000
     11 C12         -4.8880     1.6870    -0.0440 ca         1 K7D      -0.121000
     12 C14         -2.7860     1.0300     0.9910 ca         1 K7D      -0.107500
     13 C16         -0.5700    -3.2130     0.2740 ca         1 K7D      -0.194000
     14 C18          0.9930    -1.3590     0.0610 ca         1 K7D      -0.223600
     15 C19          2.3600    -0.8080    -0.0280 c          1 K7D       0.591900
     16 N06          0.0210     0.8910    -0.2020 na         1 K7D      -0.799000
     17 O01          3.7790     2.5660    -0.1900 o          1 K7D      -0.714000
     18 O03          4.7940     0.7090    -0.0340 o          1 K7D      -0.714000
     19 O20          3.3190    -1.5710    -0.0250 o          1 K7D      -0.545100
     20 H1          -3.5210    -0.9870    -1.6700 ha         1 K7D       0.120500
     21 H2          -4.0220     2.6690     1.6790 ha         1 K7D       0.106500
     22 H3          -2.6640    -2.6990     0.2820 ha         1 K7D       0.098000
     23 H4           1.5760    -3.4500     0.2470 ha         1 K7D       0.132000
     24 H6           1.3480     2.5720    -0.2480 h4         1 K7D       0.223000
     25 H7          -5.5060     0.5040    -1.7480 ha         1 K7D       0.106500
     26 H8          -5.7580     2.3390    -0.0800 ha         1 K7D       0.103000
     27 H9          -2.0420     1.1740     1.7710 ha         1 K7D       0.120500
     28 H10         -0.7580    -4.2800     0.3790 ha         1 K7D       0.102000
     29 H5          -0.8290     1.4430    -0.3140 hn         1 K7D       0.492000
     30 C02          3.7570     1.3460    -0.1110 c          1 K7D       0.726200
@<TRIPOS>BOND
     1     1     9 ar  
     2     1    10 ar  
     3     1    20 1   
     4     2    11 ar  
     5     2    12 ar  
     6     2    21 1   
     7     3     8 ar  
     8     3    13 ar  
     9     3    22 1   
    10     4    13 ar  
    11     4    14 ar  
    12     4    23 1   
    13     5     6 2   
    14     5    15 1   
    15     5    30 1   
    16     6    16 1   
    17     6    24 1   
    18     7     8 ar  
    19     7    14 ar  
    20     7    16 1   
    21     8     9 1   
    22     9    12 ar  
    23    10    11 ar  
    24    10    25 1   
    25    11    26 1   
    26    12    27 1   
    27    13    28 1   
    28    14    15 1   
    29    15    19 2   
    30    16    29 1   
    31    17    30 1   
    32    18    30 1   
@<TRIPOS>SUBSTRUCTURE
     1 K7D         1 TEMP              0 ****  ****    0 ROOT
