@<TRIPOS>MOLECULE
K7D
   30    32     1     0     0
SMALL
bcc


@<TRIPOS>ATOM
      1 C10         -3.5930    -0.1540    -0.9740 ca         1 K7D      -0.125500
      2 C13         -3.9460     1.7940     0.9710 ca         1 K7D      -0.133000
      3 C15         -1.6630    -2.2930     0.2020 ca         1 K7D      -0.070000
      4 C17          0.7040    -2.6790     0.2380 ca         1 K7D      -0.035000
      5 C04          2.4710     0.6330    -0.1130 cc         1 K7D      -0.296400
      6 C05          1.3370     1.3890    -0.1890 cd         1 K7D       0.063000
      7 C07         -0.1560    -0.4390     0.0350 ca         1 K7D       0.203600
      8 C08         -1.4780    -0.9280     0.0960 cp         1 K7D      -0.141000
      9 C09         -2.6440    -0.0180     0.0400 cp         1 K7D      -0.014000
     10 C11         -4.7060     0.6740    -1.0130 ca         1 K7D      -0.133000
     11 C12         -4.8830     1.6520    -0.0430 ca         1 K7D      -0.139000
     12 C14         -2.8340     0.9640     1.0130 ca         1 K7D      -0.125500
     13 C16         -0.5790    -3.1720     0.2740 ca         1 K7D      -0.212000
     14 C18          0.9420    -1.3040     0.1140 ca         1 K7D      -0.223600
     15 C19          2.3360    -0.8010     0.0570 c          1 K7D       0.591900
     16 N06          0.0920     0.8980    -0.1200 na         1 K7D      -0.605400
     17 O01          3.7300     2.6160    -0.2690 o          1 K7D      -0.819300
     18 O03          4.8380     0.6900    -0.2800 o          1 K7D      -0.819300
     19 O20          3.2660    -1.5980     0.1580 o          1 K7D      -0.545100
     20 H1          -3.4540    -0.9080    -1.7380 ha         1 K7D       0.138500
     21 H2          -4.0810     2.5470     1.7360 ha         1 K7D       0.124500
     22 H3          -2.6720    -2.6820     0.2490 ha         1 K7D       0.116000
     23 H4           1.5490    -3.3510     0.3000 ha         1 K7D       0.150000
     24 H6           1.4010     2.4600    -0.3130 h4         1 K7D       0.173000
     25 H7          -5.4330     0.5570    -1.8060 ha         1 K7D       0.124500
     26 H8          -5.7510     2.2980    -0.0760 ha         1 K7D       0.121000
     27 H9          -2.1220     1.0650     1.8240 ha         1 K7D       0.138500
     28 H10         -0.7550    -4.2350     0.3650 ha         1 K7D       0.120000
     29 H5          -0.6820     1.5380    -0.2160 hn         1 K7D       0.436800
     30 C02          3.7990     1.3690    -0.2270 c          1 K7D       0.936800
@<TRIPOS>BOND
     1     1     9 ar  
     2     1    10 ar  
     3     1    20 1   
     4     2    11 ar  
     5     2    12 ar  
     6     2    21 1   
     7     3     8 ar  
     8     3    13 ar  
     9     3    22 1   
    10     4    13 ar  
    11     4    14 ar  
    12     4    23 1   
    13     5     6 2   
    14     5    15 1   
    15     5    30 1   
    16     6    16 1   
    17     6    24 1   
    18     7     8 ar  
    19     7    14 ar  
    20     7    16 1   
    21     8     9 1   
    22     9    12 ar  
    23    10    11 ar  
    24    10    25 1   
    25    11    26 1   
    26    12    27 1   
    27    13    28 1   
    28    14    15 1   
    29    15    19 2   
    30    16    29 1   
    31    17    30 1   
    32    18    30 1   
@<TRIPOS>SUBSTRUCTURE
     1 K7D         1 TEMP              0 ****  ****    0 ROOT
