@<TRIPOS>MOLECULE
K7F
   71    75     1     0     0
SMALL
No Charge or Current Charge


@<TRIPOS>ATOM
      1 N           53.6600   -37.1610    37.0540 nt         1 K7F      -0.604000
      2 C           52.3680   -36.7900    36.9230 c          1 K7F       0.615700
      3 O           51.5190   -37.3670    37.5830 o          1 K7F      -0.602100
      4 C1          52.0350   -35.6720    35.9570 ca         1 K7F      -0.152600
      5 C10         51.4570   -30.6230    34.7970 c6         1 K7F       0.167300
      6 C11         50.8460   -29.4440    35.5860 c6         1 K7F      -0.091900
      7 C12         50.2350   -28.3730    34.6480 c6         1 K7F       0.252500
      8 C13         52.0940   -26.6270    34.5030 ca         1 K7F       0.421900
      9 C14         52.6660   -25.3320    36.2980 ca         1 K7F       0.407300
     10 C15         51.5000   -25.4530    38.3990 ca         1 K7F       0.127100
     11 C16         51.7670   -26.6460    39.1090 ca         1 K7F      -0.067300
     12 C17         53.1260   -27.3310    39.0090 c3         1 K7F      -0.047300
     13 C18         50.7570   -27.2080    39.9140 ca         1 K7F      -0.073500
     14 C19         49.4970   -26.5880    40.0150 ca         1 K7F      -0.010000
     15 C2          53.0320   -35.0130    35.1970 ca         1 K7F      -0.074500
     16 C20         48.4720   -27.1700    40.8380 cg         1 K7F       0.322000
     17 C21         49.2440   -25.3970    39.3100 ca         1 K7F      -0.073500
     18 C22         50.2420   -24.8220    38.5000 ca         1 K7F      -0.067300
     19 C23         49.9540   -23.5360    37.7310 c3         1 K7F      -0.047300
     20 C24         53.7100   -24.7300    35.5470 cp         1 K7F      -0.243000
     21 C25         53.8360   -25.1830    34.2120 ca         1 K7F       0.183900
     22 C26         54.6250   -23.6780    36.0850 cp         1 K7F       0.044000
     23 C27         55.2010   -23.7580    37.3740 ca         1 K7F      -0.157500
     24 C28         56.0640   -22.7460    37.8230 ca         1 K7F       0.333900
     25 C29         55.8580   -21.5870    35.8310 ca         1 K7F       0.333900
     26 C3          52.6890   -33.9780    34.3100 ca         1 K7F      -0.109500
     27 C30         54.9870   -22.5560    35.3070 ca         1 K7F      -0.157500
     28 C4          50.6910   -35.2620    35.8010 ca         1 K7F      -0.074500
     29 C5          50.3530   -34.2270    34.9120 ca         1 K7F      -0.109500
     30 C6          51.3480   -33.5780    34.1610 ca         1 K7F      -0.066300
     31 C7          50.9740   -32.4530    33.1980 c3         1 K7F       0.214100
     32 C8          49.9340   -30.2400    32.9090 c6         1 K7F       0.167300
     33 C9          49.2800   -29.0360    33.6290 c6         1 K7F      -0.091900
     34 N1          50.4590   -31.2380    33.8780 n3         1 K7F      -0.725600
     35 N3          51.8600   -26.2720    35.7720 nb         1 K7F      -0.327000
     36 N4          47.6320   -27.6370    41.5010 n1         1 K7F      -0.446000
     37 N5          53.0360   -26.1320    33.6910 nb         1 K7F      -0.269000
     38 N6          56.3930   -21.6710    37.0700 nb         1 K7F      -0.665000
     39 O1          52.4710   -24.9020    37.5920 os         1 K7F      -0.362400
     40 H1          53.8940   -37.9050    37.6940 hn         1 K7F       0.312500
     41 H2          54.3790   -36.7000    36.5190 hn         1 K7F       0.312500
     42 H3          51.8250   -31.3640    35.5220 h1         1 K7F       0.034950
     43 H4          52.3310   -30.2670    34.2310 h1         1 K7F       0.034950
     44 H5          51.6030   -29.0010    36.2440 hc         1 K7F       0.061950
     45 H6          50.0580   -29.8310    36.2450 hc         1 K7F       0.061950
     46 H7          49.6320   -27.6820    35.2580 h1         1 K7F       0.071700
     47 H8          53.9390   -26.6250    39.2110 hc         1 K7F       0.051033
     48 H9          53.2210   -28.1540    39.7270 hc         1 K7F       0.051033
     49 H10         53.2830   -27.7480    38.0070 hc         1 K7F       0.051033
     50 H11         50.9500   -28.1290    40.4600 ha         1 K7F       0.128500
     51 H12         54.0800   -35.2910    35.2830 ha         1 K7F       0.123500
     52 H13         48.2690   -24.9190    39.3890 ha         1 K7F       0.128500
     53 H14         49.9600   -23.7180    36.6500 hc         1 K7F       0.051033
     54 H15         48.9770   -23.1140    37.9920 hc         1 K7F       0.051033
     55 H16         50.7100   -22.7720    37.9460 hc         1 K7F       0.051033
     56 H17         54.6060   -24.7860    33.5530 h4         1 K7F       0.028100
     57 H18         54.9930   -24.6020    38.0240 ha         1 K7F       0.123000
     58 H19         56.5120   -22.7990    38.8150 h4         1 K7F       0.018100
     59 H20         56.1360   -20.7150    35.2410 h4         1 K7F       0.018100
     60 H21         53.4710   -33.4840    33.7370 ha         1 K7F       0.122000
     61 H22         54.5880   -22.4250    34.3060 ha         1 K7F       0.123000
     62 H23         49.9000   -35.7460    36.3710 ha         1 K7F       0.123500
     63 H24         49.3140   -33.9230    34.8090 ha         1 K7F       0.122000
     64 H25         50.2110   -32.8430    32.5110 h1         1 K7F       0.041200
     65 H26         51.8490   -32.1960    32.5850 h1         1 K7F       0.041200
     66 H27         49.1810   -30.7050    32.2550 h1         1 K7F       0.034950
     67 H28         50.7440   -29.8790    32.2580 h1         1 K7F       0.034950
     68 H29         48.9320   -28.2980    32.8940 hc         1 K7F       0.061950
     69 H30         48.3840   -29.3870    34.1580 hc         1 K7F       0.061950
     70 H32         51.5100   -27.8480    32.9830 hn         1 K7F       0.510000
     71 N2          51.2860   -27.6040    33.9460 nu         1 K7F      -0.915100
@<TRIPOS>BOND
     1     1     2 1   
     2     1    40 1   
     3     1    41 1   
     4     2     3 2   
     5     2     4 1   
     6     4    15 ar  
     7     4    28 ar  
     8     5     6 1   
     9     5    34 1   
    10     5    42 1   
    11     5    43 1   
    12     6     7 1   
    13     6    44 1   
    14     6    45 1   
    15     7    33 1   
    16     7    46 1   
    17     7    71 1   
    18     8    35 ar  
    19     8    37 ar  
    20     8    71 1   
    21     9    20 ar  
    22     9    35 ar  
    23     9    39 1   
    24    10    11 ar  
    25    10    18 ar  
    26    10    39 1   
    27    11    12 1   
    28    11    13 ar  
    29    12    47 1   
    30    12    48 1   
    31    12    49 1   
    32    13    14 ar  
    33    13    50 1   
    34    14    16 1   
    35    14    17 ar  
    36    15    26 ar  
    37    15    51 1   
    38    16    36 3   
    39    17    18 ar  
    40    17    52 1   
    41    18    19 1   
    42    19    53 1   
    43    19    54 1   
    44    19    55 1   
    45    20    21 ar  
    46    20    22 1   
    47    21    37 ar  
    48    21    56 1   
    49    22    23 ar  
    50    22    27 ar  
    51    23    24 ar  
    52    23    57 1   
    53    24    38 ar  
    54    24    58 1   
    55    25    27 ar  
    56    25    38 ar  
    57    25    59 1   
    58    26    30 ar  
    59    26    60 1   
    60    27    61 1   
    61    28    29 ar  
    62    28    62 1   
    63    29    30 ar  
    64    29    63 1   
    65    30    31 1   
    66    31    34 1   
    67    31    64 1   
    68    31    65 1   
    69    32    33 1   
    70    32    34 1   
    71    32    66 1   
    72    32    67 1   
    73    33    68 1   
    74    33    69 1   
    75    70    71 1   
@<TRIPOS>SUBSTRUCTURE
     1 K7F         1 TEMP              0 ****  ****    0 ROOT
