@<TRIPOS>MOLECULE
K7F
   71    75     1     0     0
SMALL
abcg2


@<TRIPOS>ATOM
      1 N           52.5780   -37.1100    37.6340 nt         1 K7F      -0.604000
      2 C           51.3910   -36.6300    37.2250 c          1 K7F       0.615700
      3 O           50.3260   -37.0690    37.6370 o          1 K7F      -0.602100
      4 C1          51.4290   -35.5210    36.2220 ca         1 K7F      -0.152600
      5 C10         51.6990   -30.4660    34.8040 c6         1 K7F       0.167300
      6 C11         51.0390   -29.2920    35.5050 c6         1 K7F      -0.091900
      7 C12         50.5090   -28.2620    34.5070 c6         1 K7F       0.252500
      8 C13         52.2570   -26.5270    34.3910 ca         1 K7F       0.421900
      9 C14         52.6900   -25.2660    36.2170 ca         1 K7F       0.407300
     10 C15         51.6610   -25.8230    38.2460 ca         1 K7F       0.127100
     11 C16         52.2370   -26.9570    38.8150 ca         1 K7F      -0.067300
     12 C17         53.6720   -27.3120    38.5690 c3         1 K7F      -0.047300
     13 C18         51.4330   -27.7490    39.6200 ca         1 K7F      -0.073500
     14 C19         50.1000   -27.4060    39.8370 ca         1 K7F      -0.010000
     15 C2          52.5220   -35.2770    35.3970 ca         1 K7F      -0.074500
     16 C20         49.2870   -28.2300    40.6710 cg         1 K7F       0.322000
     17 C21         49.5540   -26.2670    39.2530 ca         1 K7F      -0.073500
     18 C22         50.3320   -25.4560    38.4390 ca         1 K7F      -0.067300
     19 C23         49.7630   -24.2330    37.7880 c3         1 K7F      -0.047300
     20 C24         53.6080   -24.4740    35.5170 cp         1 K7F      -0.243000
     21 C25         53.7570   -24.8560    34.1860 ca         1 K7F       0.183900
     22 C26         54.3460   -23.3390    36.0830 cp         1 K7F       0.044000
     23 C27         54.9540   -23.3800    37.3390 ca         1 K7F      -0.157500
     24 C28         55.6520   -22.2720    37.7880 ca         1 K7F       0.333900
     25 C29         55.2210   -21.1110    35.8920 ca         1 K7F       0.333900
     26 C3          52.4890   -34.2410    34.4730 ca         1 K7F      -0.109500
     27 C30         54.4950   -22.1610    35.3520 ca         1 K7F      -0.157500
     28 C4          50.2990   -34.7140    36.0910 ca         1 K7F      -0.074500
     29 C5          50.2740   -33.6780    35.1760 ca         1 K7F      -0.109500
     30 C6          51.3690   -33.4280    34.3500 ca         1 K7F      -0.066300
     31 C7          51.3160   -32.3240    33.3270 c3         1 K7F       0.214100
     32 C8          50.3500   -30.1720    32.8480 c6         1 K7F       0.167300
     33 C9          49.6460   -28.9730    33.4670 c6         1 K7F      -0.091900
     34 N1          50.7760   -31.1000    33.8770 n3         1 K7F      -0.725600
     35 N3          52.0260   -26.2540    35.6790 nb         1 K7F      -0.327000
     36 N4          48.6290   -28.8950    41.3440 n1         1 K7F      -0.446000
     37 N5          53.1200   -25.8580    33.6130 nb         1 K7F      -0.269000
     38 N6          55.7910   -21.1500    37.0900 nb         1 K7F      -0.665000
     39 O1          52.4610   -24.9810    37.5070 os         1 K7F      -0.362400
     40 H1          52.6020   -37.8370    38.3310 hn         1 K7F       0.312500
     41 H2          53.4490   -36.6570    37.4220 hn         1 K7F       0.312500
     42 H3          52.0140   -31.1990    35.5500 h1         1 K7F       0.034950
     43 H4          52.6150   -30.1330    34.2870 h1         1 K7F       0.034950
     44 H5          51.7380   -28.8270    36.2010 hc         1 K7F       0.061950
     45 H6          50.1940   -29.6570    36.0960 hc         1 K7F       0.061950
     46 H7          49.8910   -27.5360    35.0410 h1         1 K7F       0.071700
     47 H8          54.3420   -26.4880    38.8130 hc         1 K7F       0.051033
     48 H9          53.9630   -28.1690    39.1730 hc         1 K7F       0.051033
     49 H10         53.8440   -27.5760    37.5240 hc         1 K7F       0.051033
     50 H11         51.8450   -28.6370    40.0830 ha         1 K7F       0.128500
     51 H12         53.4100   -35.8950    35.4450 ha         1 K7F       0.123500
     52 H13         48.5170   -26.0110    39.4290 ha         1 K7F       0.128500
     53 H14         49.7760   -24.3190    36.7010 hc         1 K7F       0.051033
     54 H15         48.7310   -24.0810    38.0960 hc         1 K7F       0.051033
     55 H16         50.3270   -23.3370    38.0500 hc         1 K7F       0.051033
     56 H17         54.4590   -24.3170    33.5570 h4         1 K7F       0.028100
     57 H18         54.9110   -24.2630    37.9600 ha         1 K7F       0.123000
     58 H19         56.1280   -22.2980    38.7610 h4         1 K7F       0.018100
     59 H20         55.3370   -20.1930    35.3270 h4         1 K7F       0.018100
     60 H21         53.3510   -34.0660    33.8400 ha         1 K7F       0.122000
     61 H22         54.0380   -22.0470    34.3780 ha         1 K7F       0.123000
     62 H23         49.4360   -34.8960    36.7180 ha         1 K7F       0.123500
     63 H24         49.3960   -33.0480    35.1030 ha         1 K7F       0.122000
     64 H25         50.6640   -32.6440    32.5080 h1         1 K7F       0.041200
     65 H26         52.3160   -32.1840    32.8850 h1         1 K7F       0.041200
     66 H27         49.6560   -30.6830    32.1760 h1         1 K7F       0.034950
     67 H28         51.1980   -29.8410    32.2220 h1         1 K7F       0.034950
     68 H29         49.3360   -28.2760    32.6850 hc         1 K7F       0.061950
     69 H30         48.7380   -29.3170    33.9670 hc         1 K7F       0.061950
     70 H32         51.7420   -27.6930    32.8550 hn         1 K7F       0.510000
     71 N2          51.5760   -27.5370    33.8370 nu         1 K7F      -0.915100
@<TRIPOS>BOND
     1     1     2 1   
     2     1    40 1   
     3     1    41 1   
     4     2     3 2   
     5     2     4 1   
     6     4    15 ar  
     7     4    28 ar  
     8     5     6 1   
     9     5    34 1   
    10     5    42 1   
    11     5    43 1   
    12     6     7 1   
    13     6    44 1   
    14     6    45 1   
    15     7    33 1   
    16     7    46 1   
    17     7    71 1   
    18     8    35 ar  
    19     8    37 ar  
    20     8    71 1   
    21     9    20 ar  
    22     9    35 ar  
    23     9    39 1   
    24    10    11 ar  
    25    10    18 ar  
    26    10    39 1   
    27    11    12 1   
    28    11    13 ar  
    29    12    47 1   
    30    12    48 1   
    31    12    49 1   
    32    13    14 ar  
    33    13    50 1   
    34    14    16 1   
    35    14    17 ar  
    36    15    26 ar  
    37    15    51 1   
    38    16    36 3   
    39    17    18 ar  
    40    17    52 1   
    41    18    19 1   
    42    19    53 1   
    43    19    54 1   
    44    19    55 1   
    45    20    21 ar  
    46    20    22 1   
    47    21    37 ar  
    48    21    56 1   
    49    22    23 ar  
    50    22    27 ar  
    51    23    24 ar  
    52    23    57 1   
    53    24    38 ar  
    54    24    58 1   
    55    25    27 ar  
    56    25    38 ar  
    57    25    59 1   
    58    26    30 ar  
    59    26    60 1   
    60    27    61 1   
    61    28    29 ar  
    62    28    62 1   
    63    29    30 ar  
    64    29    63 1   
    65    30    31 1   
    66    31    34 1   
    67    31    64 1   
    68    31    65 1   
    69    32    33 1   
    70    32    34 1   
    71    32    66 1   
    72    32    67 1   
    73    33    68 1   
    74    33    69 1   
    75    70    71 1   
@<TRIPOS>SUBSTRUCTURE
     1 K7F         1 TEMP              0 ****  ****    0 ROOT
