@<TRIPOS>MOLECULE
K7G
   34    36     1     0     0
SMALL
No Charge or Current Charge


@<TRIPOS>ATOM
      1 C01         -3.3630    -0.3460     0.4680 ca         1 K7G      -0.132600
      2 C02         -3.8500     0.3620    -0.6520 ca         1 K7G       0.151000
      3 C03         -5.1260     0.9500    -0.6150 ca         1 K7G      -0.106000
      4 C04         -5.9280     0.8300     0.5330 ca         1 K7G      -0.091000
      5 C05         -5.4570     0.1070     1.6420 ca         1 K7G      -0.114000
      6 C06         -4.1830    -0.4840     1.6080 ca         1 K7G      -0.068000
      7 C08         -2.0030    -0.9900     0.4530 c          1 K7G       0.626900
      8 C09         -0.7720    -0.1280     0.3620 ce         1 K7G      -0.271900
      9 C10         -0.9930     1.2650     0.5850 cg         1 K7G       0.318700
     10 C12          0.5060    -0.6210     0.1670 cd         1 K7G       0.265600
     11 C14          2.6210    -1.8650    -0.1850 cc         1 K7G      -0.269400
     12 C15          2.8420    -0.5190     0.0120 cd         1 K7G       0.146800
     13 C17          4.1730     0.1340     0.0150 ca         1 K7G      -0.054800
     14 C18          5.3520    -0.6190    -0.1940 ca         1 K7G      -0.088500
     15 C19          6.6140     0.0010    -0.1910 ca         1 K7G      -0.106500
     16 C20          6.7200     1.3840     0.0210 ca         1 K7G      -0.092000
     17 C21          5.5610     2.1460     0.2290 ca         1 K7G      -0.106500
     18 C22          4.2980     1.5280     0.2270 ca         1 K7G      -0.088500
     19 N11         -1.1210     2.4090     0.7730 n1         1 K7G      -0.498000
     20 N16          1.6470     0.1710     0.2160 na         1 K7G      -0.629000
     21 O23         -1.9430    -2.2110     0.5190 o          1 K7G      -0.570100
     22 S13          0.9340    -2.3020    -0.1240 ss         1 K7G       0.115800
     23 Cl7         -2.9090     0.4820    -2.1390 cl         1 K7G      -0.196000
     24 H1          -5.4960     1.4930    -1.4810 ha         1 K7G       0.130000
     25 H2          -6.9160     1.2860     0.5580 ha         1 K7G       0.117000
     26 H3          -6.0810     0.0040     2.5270 ha         1 K7G       0.119000
     27 H4          -3.8270    -1.0440     2.4710 ha         1 K7G       0.124000
     28 H6           3.3390    -2.6530    -0.3660 h4         1 K7G       0.238000
     29 H7           5.3070    -1.6910    -0.3600 ha         1 K7G       0.118000
     30 H8           7.5110    -0.5930    -0.3530 ha         1 K7G       0.121000
     31 H9           7.6970     1.8630     0.0230 ha         1 K7G       0.120000
     32 H10          5.6400     3.2190     0.3930 ha         1 K7G       0.121000
     33 H11          3.4230     2.1490     0.3910 ha         1 K7G       0.118000
     34 H5           1.6060     1.1720     0.3840 hn         1 K7G       0.532000
@<TRIPOS>BOND
     1     1     2 ar  
     2     1     6 ar  
     3     1     7 1   
     4     2     3 ar  
     5     2    23 1   
     6     3     4 ar  
     7     3    24 1   
     8     4     5 ar  
     9     4    25 1   
    10     5     6 ar  
    11     5    26 1   
    12     6    27 1   
    13     7     8 1   
    14     7    21 2   
    15     8     9 1   
    16     8    10 2   
    17     9    19 3   
    18    10    20 1   
    19    10    22 1   
    20    11    12 2   
    21    11    22 1   
    22    11    28 1   
    23    12    13 1   
    24    12    20 1   
    25    13    14 ar  
    26    13    18 ar  
    27    14    15 ar  
    28    14    29 1   
    29    15    16 ar  
    30    15    30 1   
    31    16    17 ar  
    32    16    31 1   
    33    17    18 ar  
    34    17    32 1   
    35    18    33 1   
    36    20    34 1   
@<TRIPOS>SUBSTRUCTURE
     1 K7G         1 TEMP              0 ****  ****    0 ROOT
