@<TRIPOS>MOLECULE
K7G
   34    36     1     0     0
SMALL
bcc


@<TRIPOS>ATOM
      1 C01         -3.2770    -0.2770     0.3390 ca         1 K7G      -0.132600
      2 C02         -3.8640     0.5990    -0.5660 ca         1 K7G       0.059400
      3 C03         -5.1400     1.1000    -0.3620 ca         1 K7G      -0.124000
      4 C04         -5.8450     0.7180     0.7690 ca         1 K7G      -0.109000
      5 C05         -5.2820    -0.1650     1.6810 ca         1 K7G      -0.132000
      6 C06         -4.0080    -0.6640     1.4590 ca         1 K7G      -0.086000
      7 C08         -1.9170    -0.8640     0.1300 c          1 K7G       0.626900
      8 C09         -0.7810    -0.0110     0.2750 ce         1 K7G      -0.271900
      9 C10         -0.9090     1.3510     0.6060 cg         1 K7G       0.229500
     10 C12          0.5020    -0.5410     0.0840 cd         1 K7G       0.265600
     11 C14          2.5410    -1.8520    -0.3160 cc         1 K7G      -0.219400
     12 C15          2.8090    -0.5610    -0.0410 cd         1 K7G       0.146800
     13 C17          4.1090     0.1060     0.0200 ca         1 K7G      -0.054800
     14 C18          5.2400    -0.6180     0.3990 ca         1 K7G      -0.106500
     15 C19          6.4820    -0.0060     0.4350 ca         1 K7G      -0.124500
     16 C20          6.6100     1.3370     0.1020 ca         1 K7G      -0.110000
     17 C21          5.4870     2.0640    -0.2710 ca         1 K7G      -0.124500
     18 C22          4.2430     1.4530    -0.3150 ca         1 K7G      -0.106500
     19 N11         -0.9760     2.4720     0.8840 n1         1 K7G      -0.408800
     20 N16          1.6430     0.1480     0.1790 na         1 K7G      -0.573800
     21 O23         -1.7960    -2.0600    -0.1170 o          1 K7G      -0.570100
     22 S13          0.8410    -2.1830    -0.2960 ss         1 K7G       0.115800
     23 CL7         -3.0050     1.0610    -1.9990 cl         1 K7G      -0.104400
     24 H1          -5.5810     1.7760    -1.0810 ha         1 K7G       0.148000
     25 H2          -6.8400     1.1090     0.9320 ha         1 K7G       0.135000
     26 H3          -5.8340    -0.4680     2.5600 ha         1 K7G       0.137000
     27 H4          -3.5660    -1.3530     2.1670 ha         1 K7G       0.142000
     28 H6           3.2480    -2.6290    -0.5570 h4         1 K7G       0.188000
     29 H7           5.1470    -1.6590     0.6800 ha         1 K7G       0.136000
     30 H8           7.3520    -0.5770     0.7310 ha         1 K7G       0.139000
     31 H9           7.5800     1.8150     0.1340 ha         1 K7G       0.138000
     32 H10          5.5800     3.1090    -0.5350 ha         1 K7G       0.139000
     33 H11          3.3860     2.0340    -0.6370 ha         1 K7G       0.136000
     34 H5           1.6470     1.1240     0.4470 hn         1 K7G       0.476800
@<TRIPOS>BOND
     1     1     2 ar  
     2     1     6 ar  
     3     1     7 1   
     4     2     3 ar  
     5     2    23 1   
     6     3     4 ar  
     7     3    24 1   
     8     4     5 ar  
     9     4    25 1   
    10     5     6 ar  
    11     5    26 1   
    12     6    27 1   
    13     7     8 1   
    14     7    21 2   
    15     8     9 1   
    16     8    10 2   
    17     9    19 3   
    18    10    20 1   
    19    10    22 1   
    20    11    12 2   
    21    11    22 1   
    22    11    28 1   
    23    12    13 1   
    24    12    20 1   
    25    13    14 ar  
    26    13    18 ar  
    27    14    15 ar  
    28    14    29 1   
    29    15    16 ar  
    30    15    30 1   
    31    16    17 ar  
    32    16    31 1   
    33    17    18 ar  
    34    17    32 1   
    35    18    33 1   
    36    20    34 1   
@<TRIPOS>SUBSTRUCTURE
     1 K7G         1 TEMP              0 ****  ****    0 ROOT
