@<TRIPOS>MOLECULE
K7H
   28    30     1     0     0
SMALL
abcg2


@<TRIPOS>ATOM
      1 N3          12.0260    13.0480    95.7250 nu         1 K7H      -0.923400
      2 C4          13.8060    13.5610    92.5590 ca         1 K7H      -0.040000
      3 C5          12.8720    13.1040    93.4780 ca         1 K7H      -0.168300
      4 C2          12.1470    13.2690    90.8430 ca         1 K7H      -0.063200
      5 C7          10.8710    12.4990    95.2600 c2         1 K7H       0.829100
      6 C6          13.2270    12.9110    94.9240 c6         1 K7H       0.274100
      7 N5          10.6170    12.3050    94.0050 ne         1 K7H      -0.721100
      8 C8          11.5670    12.7400    93.0890 ca         1 K7H       0.199400
      9 C9          11.1990    12.8220    91.7430 ca         1 K7H      -0.115000
     10 N1          12.1130    13.4630    89.4790 na         1 K7H      -0.353600
     11 C3          13.4460    13.6470    91.2190 ca         1 K7H       0.081400
     12 N2          14.1690    14.0540    90.1180 nc         1 K7H      -0.643100
     13 C1          13.3410    13.9320    89.1100 cd         1 K7H       0.641700
     14 N           13.6220    14.2670    87.8310 nu         1 K7H      -0.887400
     15 C           12.8070    13.8210    86.7250 c3         1 K7H       0.202100
     16 H1          12.1680    13.0300    96.7230 hn         1 K7H       0.468000
     17 H2          14.8030    13.8420    92.8830 ha         1 K7H       0.122000
     18 H3           8.9960    12.0830    95.8580 hn         1 K7H       0.475000
     19 H4          10.0270    12.5290    97.1200 hn         1 K7H       0.475000
     20 H5          13.6900    11.9260    95.0770 h1         1 K7H       0.042200
     21 H6          13.9520    13.6560    95.2520 h1         1 K7H       0.042200
     22 H7          10.1980    12.5440    91.4370 ha         1 K7H       0.127000
     23 H8          11.3280    13.2850    88.8730 hn         1 K7H       0.354000
     24 H10         14.6030    14.3940    87.6440 hn         1 K7H       0.502000
     25 H11         13.2220    14.2270    85.8070 h1         1 K7H       0.037367
     26 H12         12.7650    12.7320    86.6290 h1         1 K7H       0.037367
     27 H13         11.7880    14.2000    86.8130 h1         1 K7H       0.037367
     28 N4           9.9430    12.1480    96.1920 nv         1 K7H      -1.033200
@<TRIPOS>BOND
     1     1     5 1   
     2     1     6 1   
     3     1    16 1   
     4     2     3 ar  
     5     2    11 ar  
     6     2    17 1   
     7     3     6 1   
     8     3     8 ar  
     9     4     9 ar  
    10     4    10 1   
    11     4    11 ar  
    12     5     7 2   
    13     5    28 1   
    14     6    20 1   
    15     6    21 1   
    16     7     8 1   
    17     8     9 ar  
    18     9    22 1   
    19    10    13 1   
    20    10    23 1   
    21    11    12 1   
    22    12    13 2   
    23    13    14 1   
    24    14    15 1   
    25    14    24 1   
    26    15    25 1   
    27    15    26 1   
    28    15    27 1   
    29    18    28 1   
    30    19    28 1   
@<TRIPOS>SUBSTRUCTURE
     1 K7H         1 TEMP              0 ****  ****    0 ROOT
