@<TRIPOS>MOLECULE
K7H
   28    30     1     0     0
SMALL
No Charge or Current Charge


@<TRIPOS>ATOM
      1 N3          12.0200    12.7500    95.8300 nu         1 K7H      -0.923400
      2 C4          13.7660    13.5410    92.5670 ca         1 K7H      -0.040000
      3 C5          12.8230    13.1020    93.5270 ca         1 K7H      -0.168300
      4 C2          12.1270    13.1890    90.8400 ca         1 K7H      -0.063200
      5 C7          10.9460    12.1740    95.3010 c2         1 K7H       0.829100
      6 C6          13.2000    13.0420    95.0070 c6         1 K7H       0.274100
      7 N5          10.5940    12.2780    94.0850 ne         1 K7H      -0.721100
      8 C8          11.5250    12.7040    93.1190 ca         1 K7H       0.199400
      9 C9          11.1650    12.7480    91.7570 ca         1 K7H      -0.115000
     10 N1          12.0250    13.3200    89.4830 na         1 K7H      -0.353600
     11 C3          13.3850    13.5750    91.2170 ca         1 K7H       0.081400
     12 N2          14.1450    13.9680    90.1250 nc         1 K7H      -0.643100
     13 C1          13.2800    13.7930    89.1290 cd         1 K7H       0.641700
     14 N           13.6510    14.0730    87.8660 nu         1 K7H      -0.887400
     15 C           12.8360    13.9410    86.6500 c3         1 K7H       0.202100
     16 H1          12.2040    12.4080    96.7650 hn         1 K7H       0.468000
     17 H2          14.7660    13.8470    92.8640 ha         1 K7H       0.122000
     18 H3           9.1280    12.2610    95.7650 hn         1 K7H       0.475000
     19 H4          10.1840    13.1030    96.7540 hn         1 K7H       0.475000
     20 H5          13.9570    12.2540    95.1410 h1         1 K7H       0.042200
     21 H6          13.6570    13.9950    95.3130 h1         1 K7H       0.042200
     22 H7          10.1720    12.4490    91.4330 ha         1 K7H       0.127000
     23 H8          11.2480    13.1280    88.8700 hn         1 K7H       0.354000
     24 H10         14.6090    14.4100    87.7920 hn         1 K7H       0.502000
     25 H11         13.4140    14.2460    85.7680 h1         1 K7H       0.037367
     26 H12         12.5170    12.9000    86.5130 h1         1 K7H       0.037367
     27 H13         11.9430    14.5760    86.7150 h1         1 K7H       0.037367
     28 N4          10.0270    12.2610    96.2230 nv         1 K7H      -1.033200
@<TRIPOS>BOND
     1     1     5 1   
     2     1     6 1   
     3     1    16 1   
     4     2     3 ar  
     5     2    11 ar  
     6     2    17 1   
     7     3     6 1   
     8     3     8 ar  
     9     4     9 ar  
    10     4    10 1   
    11     4    11 ar  
    12     5     7 2   
    13     5    28 1   
    14     6    20 1   
    15     6    21 1   
    16     7     8 1   
    17     8     9 ar  
    18     9    22 1   
    19    10    13 1   
    20    10    23 1   
    21    11    12 1   
    22    12    13 2   
    23    13    14 1   
    24    14    15 1   
    25    14    24 1   
    26    15    25 1   
    27    15    26 1   
    28    15    27 1   
    29    18    28 1   
    30    19    28 1   
@<TRIPOS>SUBSTRUCTURE
     1 K7H         1 TEMP              0 ****  ****    0 ROOT
