@<TRIPOS>MOLECULE
K7I
   47    47     1     0     0
SMALL
bcc


@<TRIPOS>ATOM
      1 CAK         -1.4020    -1.7030     0.5170 ca         1 K7I      -0.121000
      2 CAI         -0.7040    -2.7320    -0.1000 ca         1 K7I      -0.124500
      3 CAH         -0.9170    -3.0110    -1.4430 ca         1 K7I      -0.130000
      4 CAJ         -1.8330    -2.2530    -2.1620 ca         1 K7I      -0.124500
      5 CAL         -2.5220    -1.2200    -1.5420 ca         1 K7I      -0.121000
      6 CAR         -2.3160    -0.9290    -0.1950 ca         1 K7I      -0.081300
      7 CAM         -3.0080     0.2380     0.4490 c3         1 K7I      -0.047100
      8 CAV         -2.2280     1.5440     0.2270 c3         1 K7I       0.072700
      9 OAG         -4.2580     2.8470     0.5130 oh         1 K7I      -0.588800
     10 NAO         -0.8790     1.4000     0.7260 ns         1 K7I      -0.559900
     11 CAQ          0.2080     1.2520    -0.0460 c          1 K7I       0.660100
     12 OAF          0.2120     1.3650    -1.2620 o          1 K7I      -0.605100
     13 CAU          1.4940     0.9840     0.7310 c3         1 K7I       0.037700
     14 CAC          2.1210     2.3080     1.1710 c3         1 K7I      -0.105100
     15 NAN          2.3720     0.2130    -0.1130 ns         1 K7I      -0.564900
     16 C            3.2680    -0.6660     0.3570 c          1 K7I       0.678100
     17 O            3.4750    -0.8400     1.5500 o          1 K7I      -0.609100
     18 CA           3.9750    -1.4940    -0.7070 c3         1 K7I       0.084500
     19 CB           3.1660    -2.7730    -0.9450 c3         1 K7I      -0.133100
     20 N            5.3490    -1.7120    -0.2940 n8         1 K7I      -0.868800
     21 CAT         -2.9020     2.7580     0.8900 c3         1 K7I       0.137100
     22 CAB         -2.1510     4.0490     0.6010 c3         1 K7I      -0.124100
     23 HAK         -1.2340    -1.5000     1.5680 ha         1 K7I       0.126500
     24 HAI          0.0060    -3.3160     0.4720 ha         1 K7I       0.131000
     25 HAH         -0.3770    -3.8150    -1.9270 ha         1 K7I       0.129000
     26 HAJ         -2.0110    -2.4670    -3.2080 ha         1 K7I       0.131000
     27 HAL         -3.2290    -0.6300    -2.1140 ha         1 K7I       0.126500
     28 HAM         -4.0130     0.3550     0.0410 hc         1 K7I       0.060200
     29 HAMA        -3.1210     0.0650     1.5240 hc         1 K7I       0.060200
     30 HAV         -2.1540     1.7290    -0.8480 h1         1 K7I       0.084700
     31 HOAG        -4.2980     3.0780    -0.4220 ho         1 K7I       0.403000
     32 HNAO        -0.7780     1.2090     1.7120 hn         1 K7I       0.311500
     33 HAU          1.2610     0.3900     1.6190 h1         1 K7I       0.075700
     34 HAC          3.0270     2.1200     1.7440 hc         1 K7I       0.050700
     35 HACA         2.3800     2.9190     0.3060 hc         1 K7I       0.050700
     36 HACB         1.4350     2.8760     1.8000 hc         1 K7I       0.050700
     37 HNAN         2.2500     0.3160    -1.1100 hn         1 K7I       0.338500
     38 HA           3.9970    -0.9240    -1.6410 h1         1 K7I       0.067700
     39 HB           2.1430    -2.5570    -1.2550 hc         1 K7I       0.045367
     40 HBA          3.6350    -3.3700    -1.7280 hc         1 K7I       0.045367
     41 HBB          3.1240    -3.3780    -0.0370 hc         1 K7I       0.045367
     42 HN           5.3600    -2.2550     0.5620 hn         1 K7I       0.348800
     43 HNA          5.8140    -2.2810    -0.9910 hn         1 K7I       0.348800
     44 HAT         -2.9130     2.5910     1.9730 h1         1 K7I       0.068700
     45 HAB         -2.0980     4.2400    -0.4740 hc         1 K7I       0.046700
     46 HABA        -2.6490     4.8950     1.0750 hc         1 K7I       0.046700
     47 HABB        -1.1310     4.0090     0.9810 hc         1 K7I       0.046700
@<TRIPOS>BOND
     1     1     2 ar  
     2     1     6 ar  
     3     1    23 1   
     4     2     3 ar  
     5     2    24 1   
     6     3     4 ar  
     7     3    25 1   
     8     4     5 ar  
     9     4    26 1   
    10     5     6 ar  
    11     5    27 1   
    12     6     7 1   
    13     7     8 1   
    14     7    28 1   
    15     7    29 1   
    16     8    10 1   
    17     8    21 1   
    18     8    30 1   
    19     9    21 1   
    20     9    31 1   
    21    10    11 1   
    22    10    32 1   
    23    11    12 2   
    24    11    13 1   
    25    13    14 1   
    26    13    15 1   
    27    13    33 1   
    28    14    34 1   
    29    14    35 1   
    30    14    36 1   
    31    15    16 1   
    32    15    37 1   
    33    16    17 2   
    34    16    18 1   
    35    18    19 1   
    36    18    20 1   
    37    18    38 1   
    38    19    39 1   
    39    19    40 1   
    40    19    41 1   
    41    20    42 1   
    42    20    43 1   
    43    21    22 1   
    44    21    44 1   
    45    22    45 1   
    46    22    46 1   
    47    22    47 1   
@<TRIPOS>SUBSTRUCTURE
     1 K7I         1 TEMP              0 ****  ****    0 ROOT
