@<TRIPOS>MOLECULE
K7I
   47    47     1     0     0
SMALL
No Charge or Current Charge


@<TRIPOS>ATOM
      1 CAK         -2.6240    -1.8490     1.0500 ca         1 K7I      -0.103000
      2 CAI         -2.2060    -3.1400     0.6830 ca         1 K7I      -0.106500
      3 CAH         -2.0980    -3.4860    -0.6740 ca         1 K7I      -0.112000
      4 CAJ         -2.4080    -2.5400    -1.6650 ca         1 K7I      -0.106500
      5 CAL         -2.8260    -1.2490    -1.2990 ca         1 K7I      -0.103000
      6 CAR         -2.9350    -0.8950     0.0600 ca         1 K7I      -0.081300
      7 CAM         -3.3700     0.5150     0.4540 c3         1 K7I      -0.047100
      8 CAV         -2.3030     1.5900     0.1170 c3         1 K7I       0.072700
      9 OAG         -3.9300     3.4330    -0.0250 oh         1 K7I      -0.651000
     10 NAO         -0.9980     1.1780     0.6610 ns         1 K7I      -0.492900
     11 CAQ          0.1540     1.0060    -0.0810 c          1 K7I       0.593100
     12 OAF          0.1960     1.2380    -1.2840 o          1 K7I      -0.605100
     13 CAU          1.3830     0.4960     0.7270 c3         1 K7I       0.037700
     14 CAC          1.8730     1.5470     1.7500 c3         1 K7I      -0.105100
     15 NAN          2.4770     0.1050    -0.1910 ns         1 K7I      -0.497900
     16 C            3.5160    -0.7460     0.1240 c          1 K7I       0.611100
     17 O            3.6190    -1.2590     1.2340 o          1 K7I      -0.609100
     18 CA           4.5550    -0.9980    -1.0340 c3         1 K7I       0.084500
     19 CB           4.5430    -2.4730    -1.4860 c3         1 K7I      -0.133100
     20 N            5.9660    -0.5870    -0.7400 n8         1 K7I      -0.979200
     21 CAT         -2.6980     3.0250     0.5890 c3         1 K7I       0.160300
     22 CAB         -1.6290     4.0930     0.2740 c3         1 K7I      -0.124100
     23 HAK         -2.7000    -1.5910     2.1030 ha         1 K7I       0.108500
     24 HAI         -1.9650    -3.8720     1.4510 ha         1 K7I       0.113000
     25 HAH         -1.7740    -4.4860    -0.9580 ha         1 K7I       0.111000
     26 HAJ         -2.3240    -2.8060    -2.7170 ha         1 K7I       0.113000
     27 HAL         -3.0610    -0.5210    -2.0730 ha         1 K7I       0.108500
     28 HAM         -4.3080     0.7610    -0.0580 hc         1 K7I       0.060200
     29 HAMA        -3.5910     0.5580     1.5270 hc         1 K7I       0.060200
     30 HAV         -2.2190     1.6220    -0.9780 h1         1 K7I       0.084700
     31 HOAG        -3.7300     3.6470    -0.9620 ho         1 K7I       0.442000
     32 HNAO        -0.9410     0.9500     1.6460 hn         1 K7I       0.311500
     33 HAU          1.0520    -0.3990     1.2720 h1         1 K7I       0.075700
     34 HAC          2.7210     1.1640     2.3290 hc         1 K7I       0.050700
     35 HACA         2.1910     2.4640     1.2400 hc         1 K7I       0.050700
     36 HACB         1.0760     1.8080     2.4580 hc         1 K7I       0.050700
     37 HNAN         2.4580     0.4770    -1.1350 hn         1 K7I       0.338500
     38 HA           4.2190    -0.3970    -1.8920 h1         1 K7I       0.067700
     39 HB           3.5300    -2.7720    -1.7830 hc         1 K7I       0.045367
     40 HBA          5.2040    -2.6270    -2.3470 hc         1 K7I       0.045367
     41 HBB          4.8680    -3.1360    -0.6750 hc         1 K7I       0.045367
     42 HN           6.3040    -1.1130     0.0770 hn         1 K7I       0.404000
     43 HNA          6.5800    -0.9030    -1.5010 hn         1 K7I       0.404000
     44 HAT         -2.8270     2.9950     1.6800 h1         1 K7I       0.068700
     45 HAB         -1.4030     4.1210    -0.7990 hc         1 K7I       0.046700
     46 HABA        -1.9740     5.0880     0.5800 hc         1 K7I       0.046700
     47 HABB        -0.6980     3.8850     0.8140 hc         1 K7I       0.046700
@<TRIPOS>BOND
     1     1     2 ar  
     2     1     6 ar  
     3     1    23 1   
     4     2     3 ar  
     5     2    24 1   
     6     3     4 ar  
     7     3    25 1   
     8     4     5 ar  
     9     4    26 1   
    10     5     6 ar  
    11     5    27 1   
    12     6     7 1   
    13     7     8 1   
    14     7    28 1   
    15     7    29 1   
    16     8    10 1   
    17     8    21 1   
    18     8    30 1   
    19     9    21 1   
    20     9    31 1   
    21    10    11 1   
    22    10    32 1   
    23    11    12 2   
    24    11    13 1   
    25    13    14 1   
    26    13    15 1   
    27    13    33 1   
    28    14    34 1   
    29    14    35 1   
    30    14    36 1   
    31    15    16 1   
    32    15    37 1   
    33    16    17 2   
    34    16    18 1   
    35    18    19 1   
    36    18    20 1   
    37    18    38 1   
    38    19    39 1   
    39    19    40 1   
    40    19    41 1   
    41    20    42 1   
    42    20    43 1   
    43    21    22 1   
    44    21    44 1   
    45    22    45 1   
    46    22    46 1   
    47    22    47 1   
@<TRIPOS>SUBSTRUCTURE
     1 K7I         1 TEMP              0 ****  ****    0 ROOT
