@<TRIPOS>MOLECULE
K7J
   71    72     1     0     0
SMALL
bcc


@<TRIPOS>ATOM
      1 CAF         -5.3680    -1.9970     0.1130 c          1 K7J       0.662100
      2 OAU         -4.8250    -3.0090     0.5400 o          1 K7J      -0.637100
      3 CAE         -6.8550    -1.7530     0.2380 c3         1 K7J      -0.124400
      4 CAD         -7.4100    -2.1930     1.5830 c3         1 K7J      -0.203400
      5 CAB         -8.9300    -2.0130     1.7480 c          1 K7J       0.928600
      6 OAA         -9.5660    -1.5130     0.8000 o          1 K7J      -0.845800
      7 OAC         -9.4020    -2.3890     2.8420 o          1 K7J      -0.845800
      8 N           -4.6820    -1.0270    -0.5180 ns         1 K7J      -0.582900
      9 CA          -3.2680    -1.1000    -0.7770 c3         1 K7J       0.041700
     10 C           -2.7380     0.3200    -0.9580 c          1 K7J       0.662100
     11 O           -3.4710     1.2550    -1.2510 o          1 K7J      -0.617100
     12 CB          -2.9430    -1.9470    -2.0110 c3         1 K7J      -0.110100
     13 NAJ         -1.4170     0.4300    -0.8040 ns         1 K7J      -0.572900
     14 CAK         -0.6780     1.6570    -0.9810 c3         1 K7J       0.048700
     15 CAL          0.7650     1.2460    -1.2480 c          1 K7J       0.661100
     16 OAY          1.1230     0.0940    -1.0510 o          1 K7J      -0.610100
     17 CAX         -0.7610     2.5420     0.2650 c3         1 K7J      -0.107100
     18 NAM          1.6370     2.1800    -1.6470 n          1 K7J      -0.466800
     19 CAN          3.0390     1.8070    -1.7490 c5         1 K7J       0.028700
     20 CAO          3.5260     1.3000    -0.3940 c          1 K7J       0.670100
     21 OBC          3.2920     1.9320     0.6230 o          1 K7J      -0.598100
     22 CBB          3.7240     3.1130    -2.1700 c5         1 K7J      -0.086400
     23 CBA          2.6130     3.8860    -2.8750 c5         1 K7J      -0.095400
     24 CAZ          1.3910     3.5630    -2.0270 c5         1 K7J       0.112000
     25 CAR          6.2520    -0.2790     0.9390 c3         1 K7J       0.131100
     26 OAE          6.7400    -0.9600     2.0670 oh         1 K7J      -0.581800
     27 CAQ          4.7340    -0.5010     0.7610 c3         1 K7J       0.078700
     28 NAP          4.2590     0.1770    -0.4250 ns         1 K7J      -0.554900
     29 CBD          4.3950    -1.9940     0.6830 c3         1 K7J      -0.043100
     30 CBG          2.9220    -2.2690     0.5280 ca         1 K7J      -0.087300
     31 CBF          2.4230    -2.8700    -0.6220 ca         1 K7J      -0.116000
     32 CBH          2.0290    -1.9530     1.5500 ca         1 K7J      -0.116000
     33 CBI          1.0710    -3.1630    -0.7470 ca         1 K7J      -0.117500
     34 CBK          0.6770    -2.2380     1.4300 ca         1 K7J      -0.117500
     35 CBJ          0.1940    -2.8540     0.2810 ca         1 K7J      -0.124000
     36 HAE         -7.0870    -0.7030     0.0530 hc         1 K7J       0.060700
     37 HAEA        -7.3430    -2.3130    -0.5650 hc         1 K7J       0.060700
     38 HAD         -7.1680    -3.2440     1.7600 hc         1 K7J       0.032700
     39 HADA        -6.9120    -1.6430     2.3890 hc         1 K7J       0.032700
     40 HN          -5.1700    -0.2150    -0.8630 hn         1 K7J       0.336500
     41 HA          -2.7800    -1.5450     0.0940 h1         1 K7J       0.075700
     42 HB          -1.8670    -2.0100    -2.1790 hc         1 K7J       0.044033
     43 HBC         -3.3180    -2.9600    -1.8770 hc         1 K7J       0.044033
     44 HBE         -3.4020    -1.5230    -2.9050 hc         1 K7J       0.044033
     45 HNAJ        -0.8570    -0.3810    -0.5710 hn         1 K7J       0.347500
     46 HAK         -1.0810     2.1990    -1.8410 h1         1 K7J       0.077700
     47 HAX         -0.2510     3.4930     0.1220 hc         1 K7J       0.052033
     48 HAXA        -1.8020     2.7590     0.4980 hc         1 K7J       0.052033
     49 HAXB        -0.3110     2.0390     1.1210 hc         1 K7J       0.052033
     50 HAN          3.1710     1.0440    -2.5230 h1         1 K7J       0.064700
     51 HBB          4.0620     3.6680    -1.2920 hc         1 K7J       0.061200
     52 HBBA         4.5900     2.9270    -2.8030 hc         1 K7J       0.061200
     53 HBA          2.8090     4.9570    -2.9250 hc         1 K7J       0.056200
     54 HBAA         2.4740     3.5180    -3.8930 hc         1 K7J       0.056200
     55 HAZ          0.4540     3.6670    -2.5740 h1         1 K7J       0.057700
     56 HAZA         1.3520     4.2140    -1.1490 h1         1 K7J       0.057700
     57 HOAE         6.9600    -1.8620     1.8170 ho         1 K7J       0.408000
     58 HAQ          4.2170    -0.0680     1.6210 h1         1 K7J       0.098700
     59 HNAP         4.3170    -0.3250    -1.2980 hn         1 K7J       0.315500
     60 HBD          4.9440    -2.4490    -0.1480 hc         1 K7J       0.047700
     61 HBDA         4.7510    -2.4780     1.5940 hc         1 K7J       0.047700
     62 HBF          3.1020    -3.1230    -1.4290 ha         1 K7J       0.120000
     63 HBH          2.3950    -1.4900     2.4590 ha         1 K7J       0.120000
     64 HBI          0.7040    -3.6380    -1.6490 ha         1 K7J       0.132000
     65 HBK          0.0010    -1.9940     2.2390 ha         1 K7J       0.132000
     66 HBJ         -0.8570    -3.1040     0.1960 ha         1 K7J       0.143000
     67 CAS          6.5450     1.1960     1.1330 c3         1 K7J       0.059000
     68 CL1          8.3160     1.4830     1.2380 cl         1 K7J      -0.214400
     69 HAS          6.1830     1.7860     0.2970 h1         1 K7J       0.080700
     70 HASA         6.1020     1.5710     2.0550 h1         1 K7J       0.080700
     71 HAR          6.7550    -0.6150     0.0210 h1         1 K7J       0.036700
@<TRIPOS>BOND
     1     1     2 2   
     2     1     3 1   
     3     1     8 1   
     4     3     4 1   
     5     3    36 1   
     6     3    37 1   
     7     4     5 1   
     8     4    38 1   
     9     4    39 1   
    10     5     6 1   
    11     5     7 1   
    12     8     9 1   
    13     8    40 1   
    14     9    10 1   
    15     9    12 1   
    16     9    41 1   
    17    10    11 2   
    18    10    13 1   
    19    12    42 1   
    20    12    43 1   
    21    12    44 1   
    22    13    14 1   
    23    13    45 1   
    24    14    15 1   
    25    14    17 1   
    26    14    46 1   
    27    15    16 2   
    28    15    18 1   
    29    17    47 1   
    30    17    48 1   
    31    17    49 1   
    32    18    19 1   
    33    18    24 1   
    34    19    20 1   
    35    19    22 1   
    36    19    50 1   
    37    20    21 2   
    38    20    28 1   
    39    22    23 1   
    40    22    51 1   
    41    22    52 1   
    42    23    24 1   
    43    23    53 1   
    44    23    54 1   
    45    24    55 1   
    46    24    56 1   
    47    25    26 1   
    48    25    27 1   
    49    25    67 1   
    50    25    71 1   
    51    26    57 1   
    52    27    28 1   
    53    27    29 1   
    54    27    58 1   
    55    28    59 1   
    56    29    30 1   
    57    29    60 1   
    58    29    61 1   
    59    30    31 ar  
    60    30    32 ar  
    61    31    33 ar  
    62    31    62 1   
    63    32    34 ar  
    64    32    63 1   
    65    33    35 ar  
    66    33    64 1   
    67    34    35 ar  
    68    34    65 1   
    69    35    66 1   
    70    67    68 1   
    71    67    69 1   
    72    67    70 1   
@<TRIPOS>SUBSTRUCTURE
     1 K7J         1 TEMP              0 ****  ****    0 ROOT
