@<TRIPOS>MOLECULE
K7J
   71    72     1     0     0
SMALL
No Charge or Current Charge


@<TRIPOS>ATOM
      1 CAF         -6.5820    -1.6140     0.3540 c          1 K7J       0.595100
      2 OAU         -6.2760    -2.5650     1.0600 o          1 K7J      -0.637100
      3 CAE         -8.0390    -1.1940     0.1150 c3         1 K7J      -0.124400
      4 CAD         -8.6510    -0.4650     1.3460 c3         1 K7J      -0.203400
      5 CAB        -10.1070    -0.0630     1.0640 c          1 K7J       0.718000
      6 OAA        -10.3130     1.0200     0.5380 o          1 K7J      -0.740500
      7 OAC        -10.9880    -0.8680     1.3240 o          1 K7J      -0.740500
      8 N           -5.6410    -0.8590    -0.3080 ns         1 K7J      -0.515900
      9 CA          -4.1780    -1.0780    -0.2600 c3         1 K7J       0.041700
     10 C           -3.4170     0.2220    -0.6600 c          1 K7J       0.595100
     11 O           -3.9770     1.2120    -1.1180 o          1 K7J      -0.617100
     12 CB          -3.7740    -2.2800    -1.1470 c3         1 K7J      -0.110100
     13 NAJ         -2.0520     0.1870    -0.4660 ns         1 K7J      -0.505900
     14 CAK         -1.1150     1.2930    -0.7650 c3         1 K7J       0.048700
     15 CAL          0.3390     0.7420    -0.9340 c          1 K7J       0.594100
     16 OAY          0.6230    -0.4050    -0.6020 o          1 K7J      -0.610100
     17 CAX         -1.2000     2.3850     0.3290 c3         1 K7J      -0.107100
     18 NAM          1.3420     1.6020    -1.4350 n          1 K7J      -0.399800
     19 CAN          2.7830     1.2180    -1.4510 c5         1 K7J       0.028700
     20 CAO          3.4040     0.9010    -0.0530 c          1 K7J       0.603100
     21 OBC          2.9590     1.1970     1.0490 o          1 K7J      -0.598100
     22 CBB          3.4310     2.5240    -1.9980 c5         1 K7J      -0.086400
     23 CBA          2.3810     2.9780    -3.0390 c5         1 K7J      -0.095400
     24 CAZ          1.0560     2.8030    -2.2540 c5         1 K7J       0.112000
     25 CAR          6.6130     0.6210     1.2120 c3         1 K7J       0.154300
     26 OAE          7.3490     0.0870     2.3290 oh         1 K7J      -0.644000
     27 CAQ          5.4210    -0.3220     0.8590 c3         1 K7J       0.078700
     28 NAP          4.5920     0.2200    -0.2310 ns         1 K7J      -0.487900
     29 CBD          5.8650    -1.7650     0.5030 c3         1 K7J      -0.043100
     30 CBG          4.7050    -2.6540     0.0620 ca         1 K7J      -0.087300
     31 CBF          4.6200    -3.1120    -1.2680 ca         1 K7J      -0.098000
     32 CBH          3.6990    -3.0140     0.9810 ca         1 K7J      -0.098000
     33 CBI          3.5420    -3.9160    -1.6750 ca         1 K7J      -0.099500
     34 CBK          2.6210    -3.8190     0.5740 ca         1 K7J      -0.099500
     35 CBJ          2.5410    -4.2700    -0.7540 ca         1 K7J      -0.106000
     36 HAE         -8.0940    -0.5180    -0.7470 hc         1 K7J       0.060700
     37 HAEA        -8.6330    -2.0940    -0.0850 hc         1 K7J       0.060700
     38 HAD         -8.6080    -1.1840     2.1740 hc         1 K7J       0.032700
     39 HADA        -8.0320     0.4270     1.5040 hc         1 K7J       0.032700
     40 HN          -5.9860    -0.0740    -0.8520 hn         1 K7J       0.336500
     41 HA          -3.8960    -1.2990     0.7780 h1         1 K7J       0.075700
     42 HB          -2.6970    -2.4760    -1.0770 hc         1 K7J       0.044033
     43 HBC         -4.3000    -3.1900    -0.8350 hc         1 K7J       0.044033
     44 HBE         -4.0190    -2.0850    -2.1980 hc         1 K7J       0.044033
     45 HNAJ        -1.6610    -0.6790    -0.1080 hn         1 K7J       0.347500
     46 HAK         -1.4090     1.7340    -1.7260 h1         1 K7J       0.077700
     47 HAX         -0.5310     3.2240     0.1110 hc         1 K7J       0.052033
     48 HAXA        -2.2190     2.7820     0.4060 hc         1 K7J       0.052033
     49 HAXB        -0.9190     1.9720     1.3060 hc         1 K7J       0.052033
     50 HAN          2.9450     0.3670    -2.1260 h1         1 K7J       0.064700
     51 HBB          3.5510     3.2780    -1.2090 hc         1 K7J       0.061200
     52 HBBA         4.4190     2.3510    -2.4390 hc         1 K7J       0.061200
     53 HBA          2.5340     4.0080    -3.3780 hc         1 K7J       0.056200
     54 HBAA         2.4010     2.3330    -3.9260 hc         1 K7J       0.056200
     55 HAZ          0.2040     2.6640    -2.9330 h1         1 K7J       0.057700
     56 HAZA         0.8600     3.6740    -1.6160 h1         1 K7J       0.057700
     57 HOAE         8.0330     0.7550     2.5610 ho         1 K7J       0.447000
     58 HAQ          4.7900    -0.3950     1.7560 h1         1 K7J       0.098700
     59 HNAP         4.8600     0.0120    -1.1860 hn         1 K7J       0.315500
     60 HBD          6.6270    -1.7180    -0.2850 hc         1 K7J       0.047700
     61 HBDA         6.3570    -2.2180     1.3720 hc         1 K7J       0.047700
     62 HBF          5.3880    -2.8420    -1.9910 ha         1 K7J       0.102000
     63 HBH          3.7510    -2.6680     2.0100 ha         1 K7J       0.102000
     64 HBI          3.4810    -4.2640    -2.7040 ha         1 K7J       0.114000
     65 HBK          1.8460    -4.0900     1.2880 ha         1 K7J       0.114000
     66 HBJ          1.7050    -4.8910    -1.0690 ha         1 K7J       0.125000
     67 CAS          6.1680     2.0730     1.5330 c3         1 K7J       0.135600
     68 Cl1          7.5770     3.1210     2.0330 cl         1 K7J      -0.291000
     69 HAS          5.7140     2.5380     0.6500 h1         1 K7J       0.080700
     70 HASA         5.4380     2.0770     2.3520 h1         1 K7J       0.080700
     71 HAR          7.2710     0.6680     0.3340 h1         1 K7J       0.036700
@<TRIPOS>BOND
     1     1     2 2   
     2     1     3 1   
     3     1     8 1   
     4     3     4 1   
     5     3    36 1   
     6     3    37 1   
     7     4     5 1   
     8     4    38 1   
     9     4    39 1   
    10     5     6 1   
    11     5     7 1   
    12     8     9 1   
    13     8    40 1   
    14     9    10 1   
    15     9    12 1   
    16     9    41 1   
    17    10    11 2   
    18    10    13 1   
    19    12    42 1   
    20    12    43 1   
    21    12    44 1   
    22    13    14 1   
    23    13    45 1   
    24    14    15 1   
    25    14    17 1   
    26    14    46 1   
    27    15    16 2   
    28    15    18 1   
    29    17    47 1   
    30    17    48 1   
    31    17    49 1   
    32    18    19 1   
    33    18    24 1   
    34    19    20 1   
    35    19    22 1   
    36    19    50 1   
    37    20    21 2   
    38    20    28 1   
    39    22    23 1   
    40    22    51 1   
    41    22    52 1   
    42    23    24 1   
    43    23    53 1   
    44    23    54 1   
    45    24    55 1   
    46    24    56 1   
    47    25    26 1   
    48    25    27 1   
    49    25    67 1   
    50    25    71 1   
    51    26    57 1   
    52    27    28 1   
    53    27    29 1   
    54    27    58 1   
    55    28    59 1   
    56    29    30 1   
    57    29    60 1   
    58    29    61 1   
    59    30    31 ar  
    60    30    32 ar  
    61    31    33 ar  
    62    31    62 1   
    63    32    34 ar  
    64    32    63 1   
    65    33    35 ar  
    66    33    64 1   
    67    34    35 ar  
    68    34    65 1   
    69    35    66 1   
    70    67    68 1   
    71    67    69 1   
    72    67    70 1   
@<TRIPOS>SUBSTRUCTURE
     1 K7J         1 TEMP              0 ****  ****    0 ROOT
