@<TRIPOS>MOLECULE
K7L
   16    17     1     0     0
SMALL
No Charge or Current Charge


@<TRIPOS>ATOM
      1 N1           9.3300   -22.3510    12.7830 na         1 K7L      -0.166400
      2 N3          10.5070   -20.8250    11.2930 nc         1 K7L      -0.758000
      3 C4           8.3800   -23.3440    12.7260 cc         1 K7L      -0.304100
      4 C5           8.1020   -23.3820    11.3730 cd         1 K7L       0.001600
      5 C6           9.6100   -21.8230    11.5560 cc         1 K7L       0.464500
      6 C1          11.1020   -20.4020    12.3820 cd         1 K7L       0.643300
      7 C2          10.8760   -20.8930    13.7070 cd         1 K7L      -0.271000
      8 C3           9.9640   -21.9000    13.9380 cc         1 K7L       0.210100
      9 N2           8.8600   -22.4470    10.6680 nd         1 K7L      -0.283600
     10 O1          11.9750   -19.4370    12.1590 oh         1 K7L      -0.635300
     11 O2           9.6820   -22.4260    15.1420 oh         1 K7L      -0.513100
     12 H4           7.9850   -23.9200    13.5580 h4         1 K7L       0.224000
     13 H5           7.3950   -24.0330    10.8610 h4         1 K7L       0.231000
     14 H2          11.4290   -20.4640    14.5320 ha         1 K7L       0.167000
     15 H1          11.8860   -19.3480    11.1900 ho         1 K7L       0.495000
     16 H3           9.0040   -23.1150    14.9940 ho         1 K7L       0.493000
@<TRIPOS>BOND
     1     1     3 1   
     2     1     5 1   
     3     1     8 1   
     4     2     5 1   
     5     2     6 2   
     6     3     4 2   
     7     3    12 1   
     8     4     9 1   
     9     4    13 1   
    10     5     9 2   
    11     6     7 1   
    12     6    10 1   
    13     7     8 2   
    14     7    14 1   
    15     8    11 1   
    16    10    15 1   
    17    11    16 1   
@<TRIPOS>SUBSTRUCTURE
     1 K7L         1 TEMP              0 ****  ****    0 ROOT
