@<TRIPOS>MOLECULE
K7L
   16    17     1     0     0
SMALL
abcg2


@<TRIPOS>ATOM
      1 N1           9.3080   -22.3750    12.8180 na         1 K7L      -0.166400
      2 N3          10.4570   -20.8870    11.3200 nc         1 K7L      -0.758000
      3 C4           8.3410   -23.3650    12.6780 cc         1 K7L      -0.304100
      4 C5           8.0730   -23.4080    11.3410 cd         1 K7L       0.001600
      5 C6           9.5650   -21.8700    11.5270 cc         1 K7L       0.464500
      6 C1          11.0820   -20.4200    12.3750 cd         1 K7L       0.643300
      7 C2          10.8850   -20.8770    13.6960 cd         1 K7L      -0.271000
      8 C3           9.9750   -21.8770    13.8980 cc         1 K7L       0.210100
      9 N2           8.8200   -22.4950    10.6330 nd         1 K7L      -0.283600
     10 O1          11.9820   -19.4360    12.2060 oh         1 K7L      -0.635300
     11 O2           9.7380   -22.3590    15.1140 oh         1 K7L      -0.513100
     12 H4           7.9430   -23.9250    13.5050 h4         1 K7L       0.224000
     13 H5           7.3700   -24.0590    10.8460 h4         1 K7L       0.231000
     14 H2          11.4310   -20.4590    14.5260 ha         1 K7L       0.167000
     15 H1          12.0230   -19.2160    11.2610 ho         1 K7L       0.495000
     16 H3           9.0950   -23.0830    15.1180 ho         1 K7L       0.493000
@<TRIPOS>BOND
     1     1     3 1   
     2     1     5 1   
     3     1     8 1   
     4     2     5 1   
     5     2     6 2   
     6     3     4 2   
     7     3    12 1   
     8     4     9 1   
     9     4    13 1   
    10     5     9 2   
    11     6     7 1   
    12     6    10 1   
    13     7     8 2   
    14     7    14 1   
    15     8    11 1   
    16    10    15 1   
    17    11    16 1   
@<TRIPOS>SUBSTRUCTURE
     1 K7L         1 TEMP              0 ****  ****    0 ROOT
