@<TRIPOS>MOLECULE
K7M
   24    24     1     0     0
SMALL
No Charge or Current Charge


@<TRIPOS>ATOM
      1 C45          5.8430   -39.2960   -18.3460 ca         1 K7M      -0.110000
      2 C46          5.1030   -38.1920   -18.8020 ca         1 K7M      -0.110500
      3 C47          5.3730   -37.6360   -20.0640 ca         1 K7M      -0.111000
      4 C48          6.3870   -38.1840   -20.8670 ca         1 K7M      -0.110500
      5 C49          7.1270   -39.2890   -20.4110 ca         1 K7M      -0.110000
      6 C44          6.8560   -39.8570   -19.1500 ca         1 K7M      -0.083300
      7 C43          7.6640   -41.0560   -18.6520 c3         1 K7M      -0.056100
      8 C41          7.0700   -42.4420   -19.0380 c3         1 K7M       0.147500
      9 C42          5.6800   -42.6870   -18.4100 c3         1 K7M      -0.092100
     10 N7           6.9620   -42.6000   -20.5070 n7         1 K7M      -0.615900
     11 O1           8.3120   -42.6900   -21.1130 oh         1 K7M      -0.489300
     12 H1           5.6280   -39.7180   -17.3670 ha         1 K7M       0.115500
     13 H2           4.3200   -37.7670   -18.1770 ha         1 K7M       0.111500
     14 H3           4.8000   -36.7810   -20.4160 ha         1 K7M       0.112000
     15 H4           6.6000   -37.7520   -21.8430 ha         1 K7M       0.111500
     16 H5           7.9140   -39.7020   -21.0390 ha         1 K7M       0.115500
     17 H6           8.6930   -40.9910   -19.0260 hc         1 K7M       0.056700
     18 H7           7.7560   -41.0110   -17.5600 hc         1 K7M       0.056700
     19 H8           7.7400   -43.2150   -18.6350 h1         1 K7M       0.065700
     20 H9           5.7240   -42.5710   -17.3210 hc         1 K7M       0.042033
     21 H10          4.9350   -41.9850   -18.8020 hc         1 K7M       0.042033
     22 H11          5.3360   -43.7060   -18.6260 hc         1 K7M       0.042033
     23 H12          6.5190   -41.7540   -20.9060 hn         1 K7M       0.415000
     24 H13          8.2850   -43.4670   -21.7260 ho         1 K7M       0.455000
@<TRIPOS>BOND
     1     1     2 ar  
     2     1     6 ar  
     3     1    12 1   
     4     2     3 ar  
     5     2    13 1   
     6     3     4 ar  
     7     3    14 1   
     8     4     5 ar  
     9     4    15 1   
    10     5     6 ar  
    11     5    16 1   
    12     6     7 1   
    13     7     8 1   
    14     7    17 1   
    15     7    18 1   
    16     8     9 1   
    17     8    10 1   
    18     8    19 1   
    19     9    20 1   
    20     9    21 1   
    21     9    22 1   
    22    10    11 1   
    23    10    23 1   
    24    11    24 1   
@<TRIPOS>SUBSTRUCTURE
     1 K7M         1 TEMP              0 ****  ****    0 ROOT
