@<TRIPOS>MOLECULE
K7M
   24    24     1     0     0
SMALL
bcc


@<TRIPOS>ATOM
      1 C45          5.9150   -39.2790   -18.3200 ca         1 K7M      -0.128000
      2 C46          5.1690   -38.1990   -18.7720 ca         1 K7M      -0.128500
      3 C47          5.3800   -37.6900   -20.0470 ca         1 K7M      -0.129000
      4 C48          6.3460   -38.2670   -20.8610 ca         1 K7M      -0.128500
      5 C49          7.0910   -39.3460   -20.4030 ca         1 K7M      -0.128000
      6 C44          6.8850   -39.8730   -19.1270 ca         1 K7M      -0.083300
      7 C43          7.6660   -41.0620   -18.6470 c3         1 K7M      -0.056100
      8 C41          7.0650   -42.4200   -19.0690 c3         1 K7M       0.147500
      9 C42          5.6690   -42.6370   -18.5010 c3         1 K7M      -0.092100
     10 N7           6.9780   -42.6430   -20.5040 n7         1 K7M      -0.560700
     11 O1           8.2410   -42.4620   -21.1000 oh         1 K7M      -0.450300
     12 H1           5.7450   -39.6650   -17.3220 ha         1 K7M       0.133500
     13 H2           4.4250   -37.7510   -18.1250 ha         1 K7M       0.129500
     14 H3           4.8010   -36.8460   -20.4010 ha         1 K7M       0.130000
     15 H4           6.5220   -37.8760   -21.8550 ha         1 K7M       0.129500
     16 H5           7.8520   -39.7770   -21.0440 ha         1 K7M       0.133500
     17 H6           8.6950   -41.0020   -19.0060 hc         1 K7M       0.056700
     18 H7           7.7190   -41.0530   -17.5550 hc         1 K7M       0.056700
     19 H8           7.7230   -43.1950   -18.6650 h1         1 K7M       0.065700
     20 H9           5.6600   -42.4650   -17.4240 hc         1 K7M       0.042033
     21 H10          4.9400   -41.9580   -18.9480 hc         1 K7M       0.042033
     22 H11          5.3300   -43.6570   -18.6830 hc         1 K7M       0.042033
     23 H12          6.3890   -41.9180   -20.9080 hn         1 K7M       0.359800
     24 H13          8.4220   -43.3090   -21.5170 ho         1 K7M       0.416000
@<TRIPOS>BOND
     1     1     2 ar  
     2     1     6 ar  
     3     1    12 1   
     4     2     3 ar  
     5     2    13 1   
     6     3     4 ar  
     7     3    14 1   
     8     4     5 ar  
     9     4    15 1   
    10     5     6 ar  
    11     5    16 1   
    12     6     7 1   
    13     7     8 1   
    14     7    17 1   
    15     7    18 1   
    16     8     9 1   
    17     8    10 1   
    18     8    19 1   
    19     9    20 1   
    20     9    21 1   
    21     9    22 1   
    22    10    11 1   
    23    10    23 1   
    24    11    24 1   
@<TRIPOS>SUBSTRUCTURE
     1 K7M         1 TEMP              0 ****  ****    0 ROOT
