@<TRIPOS>MOLECULE
K7N
   39    41     1     0     0
SMALL
bcc


@<TRIPOS>ATOM
      1 C13        -18.3330    22.4100     5.4500 cc         1 K7N      -0.228600
      2 C15        -18.0550    22.0410     3.3160 cc         1 K7N       0.408400
      3 C17        -17.2790    24.2730     4.1420 c3         1 K7N       0.042300
      4 C01        -19.9330    23.5140     9.7940 ca         1 K7N      -0.130000
      5 C02        -19.1210    22.4430    10.1410 ca         1 K7N      -0.134500
      6 C03        -19.0450    21.3290     9.3150 ca         1 K7N      -0.118000
      7 C04        -19.7780    21.2750     8.1300 ca         1 K7N      -0.014000
      8 C05        -20.6010    22.3510     7.7960 ca         1 K7N      -0.118000
      9 C06        -20.6750    23.4640     8.6200 ca         1 K7N      -0.134500
     10 C07        -19.7060    20.0860     7.2610 cc         1 K7N      -0.081000
     11 C08        -20.0810    18.7890     7.6990 cc         1 K7N      -0.110000
     12 C09        -19.9650    17.8320     6.7340 cd         1 K7N      -0.219000
     13 C11        -19.2890    20.0870     5.9500 cd         1 K7N      -0.060600
     14 C12        -18.7600    21.1470     5.1190 cd         1 K7N       0.360800
     15 C18        -15.8330    24.2820     4.6110 c3         1 K7N       0.131800
     16 N14        -17.8950    22.9670     4.2870 na         1 K7N      -0.187900
     17 N16        -18.5750    20.9360     3.7790 nd         1 K7N      -0.682000
     18 N19        -15.0250    23.3660     3.8250 n8         1 K7N      -0.890800
     19 N21        -21.1800    15.9280     7.6440 n2         1 K7N      -0.839100
     20 N22        -19.6230    15.5880     5.9840 nv         1 K7N      -0.917800
     21 S10        -19.3840    18.5100     5.2600 ss         1 K7N       0.035200
     22 H131       -18.3000    22.9430     6.3850 h4         1 K7N       0.186000
     23 H151       -17.7840    22.2340     2.2890 h5         1 K7N       0.063100
     24 H171       -17.3330    24.5490     3.0900 h1         1 K7N       0.069200
     25 H172       -17.8640    24.9980     4.7080 h1         1 K7N       0.069200
     26 H011       -19.9890    24.3830    10.4370 ha         1 K7N       0.129000
     27 H021       -18.5420    22.4740    11.0550 ha         1 K7N       0.130500
     28 H031       -18.4030    20.5000     9.5860 ha         1 K7N       0.138000
     29 H051       -21.1880    22.3130     6.8870 ha         1 K7N       0.138000
     30 H061       -21.3190    24.2910     8.3500 ha         1 K7N       0.130500
     31 H081       -20.4220    18.5840     8.7060 ha         1 K7N       0.154000
     32 H181       -15.8030    24.0930     5.6920 h1         1 K7N       0.040700
     33 H182       -15.4580    25.2960     4.4630 h1         1 K7N       0.040700
     34 H191       -14.0480    23.5190     4.0340 hn         1 K7N       0.348300
     35 H192       -15.2130    22.4120     4.1050 hn         1 K7N       0.348300
     36 H211       -21.6750    16.6720     8.1220 hn         1 K7N       0.392400
     37 H222       -19.7750    14.5990     6.1140 hn         1 K7N       0.409800
     38 H221       -18.6660    15.8190     5.7700 hn         1 K7N       0.409800
     39 C20        -20.3000    16.4020     6.8480 cf         1 K7N       0.687800
@<TRIPOS>BOND
     1     1    14 2   
     2     1    16 1   
     3     1    22 1   
     4     2    16 1   
     5     2    17 2   
     6     2    23 1   
     7     3    15 1   
     8     3    16 1   
     9     3    24 1   
    10     3    25 1   
    11     4     5 ar  
    12     4     9 ar  
    13     4    26 1   
    14     5     6 ar  
    15     5    27 1   
    16     6     7 ar  
    17     6    28 1   
    18     7     8 ar  
    19     7    10 1   
    20     8     9 ar  
    21     8    29 1   
    22     9    30 1   
    23    10    11 1   
    24    10    13 2   
    25    11    12 2   
    26    11    31 1   
    27    12    21 1   
    28    12    39 1   
    29    13    14 1   
    30    13    21 1   
    31    14    17 1   
    32    15    18 1   
    33    15    32 1   
    34    15    33 1   
    35    18    34 1   
    36    18    35 1   
    37    19    36 1   
    38    19    39 2   
    39    20    37 1   
    40    20    38 1   
    41    20    39 1   
@<TRIPOS>SUBSTRUCTURE
     1 K7N         1 TEMP              0 ****  ****    0 ROOT
