@<TRIPOS>MOLECULE
K7N
   39    41     1     0     0
SMALL
No Charge or Current Charge


@<TRIPOS>ATOM
      1 C13        -18.3850    22.2820     5.5130 cc         1 K7N      -0.196000
      2 C15        -18.2210    22.1960     3.2970 cc         1 K7N       0.408400
      3 C17        -17.2160    24.2530     4.4060 c3         1 K7N       0.071600
      4 C01        -20.0530    23.6160     9.6590 ca         1 K7N      -0.112000
      5 C02        -19.4610    22.4400    10.1450 ca         1 K7N      -0.116500
      6 C03        -19.3870    21.2980     9.3280 ca         1 K7N      -0.100000
      7 C04        -19.8780    21.3250     8.0060 ca         1 K7N      -0.014000
      8 C05        -20.5080    22.5030     7.5440 ca         1 K7N      -0.100000
      9 C06        -20.5830    23.6450     8.3600 ca         1 K7N      -0.116500
     10 C07        -19.8500    20.1090     7.1780 cc         1 K7N      -0.081000
     11 C08        -19.9650    18.7870     7.6900 cc         1 K7N      -0.092000
     12 C09        -19.9290    17.7880     6.7410 cd         1 K7N      -0.363900
     13 C11        -19.5700    20.0990     5.8180 cd         1 K7N      -0.205500
     14 C12        -18.9840    21.1500     5.0150 cd         1 K7N       0.295500
     15 C18        -15.7050    24.1400     4.7280 c3         1 K7N       0.131800
     16 N14        -17.9220    22.9600     4.4060 na         1 K7N      -0.166500
     17 N16        -18.8460    21.0800     3.6460 nd         1 K7N      -0.682000
     18 N19        -14.9520    23.3500     3.7240 n8         1 K7N      -1.001200
     19 N21        -20.3470    15.8750     8.0890 n2         1 K7N      -0.839100
     20 N22        -19.7460    15.5550     5.9540 nv         1 K7N      -1.028200
     21 S10        -19.8280    18.4940     5.1170 ss         1 K7N       0.325000
     22 H131       -18.2150    22.6310     6.5210 h4         1 K7N       0.168000
     23 H151       -17.9460    22.4960     2.2920 h5         1 K7N       0.063100
     24 H171       -17.3420    24.7290     3.4250 h1         1 K7N       0.069200
     25 H172       -17.6890    24.9040     5.1520 h1         1 K7N       0.069200
     26 H011       -20.1120    24.4990    10.2920 ha         1 K7N       0.111000
     27 H021       -19.0600    22.4110    11.1560 ha         1 K7N       0.112500
     28 H031       -18.9220    20.3970     9.7210 ha         1 K7N       0.120000
     29 H051       -20.9510    22.5290     6.5510 ha         1 K7N       0.120000
     30 H061       -21.0610    24.5480     7.9870 ha         1 K7N       0.112500
     31 H081       -20.0950    18.6040     8.7530 ha         1 K7N       0.136000
     32 H181       -15.5750    23.6780     5.7170 h1         1 K7N       0.040700
     33 H182       -15.2760    25.1510     4.7670 h1         1 K7N       0.040700
     34 H191       -13.9630    23.3060     4.0040 hn         1 K7N       0.403500
     35 H192       -15.2550    22.3700     3.7760 hn         1 K7N       0.403500
     36 H211       -20.5640    16.6700     8.7010 hn         1 K7N       0.392400
     37 H222       -19.6450    14.5710     6.1680 hn         1 K7N       0.465000
     38 H221       -19.1890    15.9070     5.1890 hn         1 K7N       0.465000
     39 C20        -20.0230    16.3560     6.9640 cf         1 K7N       0.687800
@<TRIPOS>BOND
     1     1    14 2   
     2     1    16 1   
     3     1    22 1   
     4     2    16 1   
     5     2    17 2   
     6     2    23 1   
     7     3    15 1   
     8     3    16 1   
     9     3    24 1   
    10     3    25 1   
    11     4     5 ar  
    12     4     9 ar  
    13     4    26 1   
    14     5     6 ar  
    15     5    27 1   
    16     6     7 ar  
    17     6    28 1   
    18     7     8 ar  
    19     7    10 1   
    20     8     9 ar  
    21     8    29 1   
    22     9    30 1   
    23    10    11 1   
    24    10    13 2   
    25    11    12 2   
    26    11    31 1   
    27    12    21 1   
    28    12    39 1   
    29    13    14 1   
    30    13    21 1   
    31    14    17 1   
    32    15    18 1   
    33    15    32 1   
    34    15    33 1   
    35    18    34 1   
    36    18    35 1   
    37    19    36 1   
    38    19    39 2   
    39    20    37 1   
    40    20    38 1   
    41    20    39 1   
@<TRIPOS>SUBSTRUCTURE
     1 K7N         1 TEMP              0 ****  ****    0 ROOT
