@<TRIPOS>MOLECULE
K7O
   42    45     1     0     0
SMALL
bcc


@<TRIPOS>ATOM
      1 C01         92.0250    -6.9660    16.3280 cc         1 K7O      -0.084000
      2 C02         91.2150    -8.0640    16.6950 cc         1 K7O      -0.032600
      3 C04         92.6540    -6.9600    15.1200 cd         1 K7O       0.033400
      4 C05         92.4830    -8.0580    14.2590 cd         1 K7O      -0.004300
      5 N09         92.9490    -8.3320    13.0550 nc         1 K7O      -0.368300
      6 C11         93.8030   -13.1550     8.5340 ca         1 K7O      -0.069200
      7 C13         93.9850   -12.1420    10.4860 cc         1 K7O       0.413800
      8 C15         93.4050   -13.7870     7.3580 ca         1 K7O      -0.083300
      9 C16         94.4260   -14.1250     6.4680 ca         1 K7O      -0.059300
     10 C17         96.1450   -13.2040     7.9450 ca         1 K7O      -0.067000
     11 C18         95.7670   -13.8320     6.7730 ca         1 K7O      -0.148000
     12 C19         93.5590   -11.5030    11.7610 c3         1 K7O      -0.094700
     13 C21         91.9680   -14.0830     7.0510 c3         1 K7O      -0.036800
     14 C22         94.0910   -14.8030     5.1690 c3         1 K7O      -0.045800
     15 C03         91.0310    -9.1460    15.8770 cd         1 K7O       0.033400
     16 N06         91.6850    -9.0840    14.6820 na         1 K7O       0.191000
     17 N07         91.6360   -10.0270    13.7350 nd         1 K7O      -0.598100
     18 C08         92.4080    -9.5300    12.7830 cc         1 K7O       0.533300
     19 N10         95.2160   -12.2260    10.0640 nd         1 K7O      -0.570100
     20 N12         93.0950   -12.6820     9.6110 na         1 K7O      -0.269300
     21 C14         95.1400   -12.8560     8.8420 ca         1 K7O       0.069400
     22 CL24        90.4490    -8.0010    18.2390 cl         1 K7O      -0.069400
     23 CL25        93.6510    -5.6650    14.6080 cl         1 K7O      -0.035400
     24 H1          92.1410    -6.1360    17.0110 ha         1 K7O       0.172000
     25 H28         97.1850   -12.9870     8.1560 ha         1 K7O       0.147000
     26 H29         96.5300   -14.1130     6.0560 ha         1 K7O       0.130000
     27 H31         93.0200   -12.2230    12.3820 hc         1 K7O       0.076200
     28 H30         94.4590   -11.2160    12.3040 hc         1 K7O       0.076200
     29 H21         93.1660    -9.5920    10.8210 hc         1 K7O       0.069700
     30 H33         91.7270   -10.5720    11.0680 hc         1 K7O       0.069700
     31 H34         91.6310   -13.5330     6.1690 hc         1 K7O       0.038367
     32 H36         91.8170   -15.1430     6.8380 hc         1 K7O       0.038367
     33 H35         91.3020   -13.8190     7.8710 hc         1 K7O       0.038367
     34 H37         93.4210   -14.1940     4.5570 hc         1 K7O       0.041033
     35 H39         94.9870   -14.9980     4.5830 hc         1 K7O       0.041033
     36 H38         93.5860   -15.7580     5.3270 hc         1 K7O       0.041033
     37 H22         90.8430   -11.2510    16.1260 hc         1 K7O       0.071367
     38 H40         89.7260   -10.3000    17.1090 hc         1 K7O       0.071367
     39 H42         89.4530   -10.4820    15.3740 hc         1 K7O       0.071367
     40 H27         92.0970   -12.7320     9.7460 hn         1 K7O       0.303700
     41 C20         92.6740   -10.2700    11.5190 c3         1 K7O      -0.082700
     42 C23         90.2160   -10.3580    16.1430 c3         1 K7O      -0.049800
@<TRIPOS>BOND
     1     1     2 1   
     2     1     3 2   
     3     1    24 1   
     4     2    15 2   
     5     2    22 1   
     6     3     4 1   
     7     3    23 1   
     8     4     5 2   
     9     4    16 1   
    10     5    18 1   
    11     6     8 ar  
    12     6    20 1   
    13     6    21 ar  
    14     7    12 1   
    15     7    19 2   
    16     7    20 1   
    17     8     9 ar  
    18     8    13 1   
    19     9    11 ar  
    20     9    14 1   
    21    10    11 ar  
    22    10    21 ar  
    23    10    25 1   
    24    11    26 1   
    25    12    27 1   
    26    12    28 1   
    27    12    41 1   
    28    13    31 1   
    29    13    32 1   
    30    13    33 1   
    31    14    34 1   
    32    14    35 1   
    33    14    36 1   
    34    15    16 1   
    35    15    42 1   
    36    16    17 1   
    37    17    18 2   
    38    18    41 1   
    39    19    21 1   
    40    20    40 1   
    41    29    41 1   
    42    30    41 1   
    43    37    42 1   
    44    38    42 1   
    45    39    42 1   
@<TRIPOS>SUBSTRUCTURE
     1 K7O         1 TEMP              0 ****  ****    0 ROOT
