@<TRIPOS>MOLECULE
K7O
   42    45     1     0     0
SMALL
No Charge or Current Charge


@<TRIPOS>ATOM
      1 C01         92.2780    -7.2670    16.6830 cc         1 K7O      -0.066000
      2 C02         91.0910    -8.0870    16.7560 cc         1 K7O       0.059000
      3 C04         93.1300    -7.3390    15.6070 cd         1 K7O       0.125000
      4 C05         92.7520    -8.2620    14.5880 cd         1 K7O      -0.055000
      5 N09         93.3600    -8.5350    13.4540 nc         1 K7O      -0.368300
      6 C11         93.8730   -13.1720     8.4890 ca         1 K7O      -0.069200
      7 C13         94.0680   -11.9750    10.3460 cc         1 K7O       0.413800
      8 C15         93.4800   -14.0160     7.4350 ca         1 K7O      -0.083300
      9 C16         94.3740   -14.1380     6.3370 ca         1 K7O      -0.059300
     10 C17         95.9480   -12.5890     7.4260 ca         1 K7O      -0.049000
     11 C18         95.6000   -13.4230     6.3430 ca         1 K7O      -0.130000
     12 C19         93.7270   -11.3750    11.6800 c3         1 K7O      -0.094700
     13 C21         92.1490   -14.7660     7.4700 c3         1 K7O      -0.036800
     14 C22         94.0380   -15.0290     5.1460 c3         1 K7O      -0.045800
     15 C03         90.7330    -9.0010    15.7580 cd         1 K7O      -0.017300
     16 N06         91.6230    -9.0350    14.6680 na         1 K7O       0.292400
     17 N07         91.4540    -9.8370    13.5810 nd         1 K7O      -0.598100
     18 C08         92.5350    -9.4800    12.8980 cc         1 K7O       0.533300
     19 N10         95.1950   -11.7230     9.6550 nd         1 K7O      -0.570100
     20 N12         93.2420   -12.8560     9.6560 na         1 K7O      -0.319600
     21 C14         95.0530   -12.4830     8.4970 ca         1 K7O       0.069400
     22 Cl24        90.1090    -7.8690    18.1770 cl         1 K7O      -0.161000
     23 Cl25        94.5720    -6.3820    15.4540 cl         1 K7O      -0.127000
     24 H1          92.4910    -6.5840    17.4970 ha         1 K7O       0.154000
     25 H28         96.8870   -12.0410     7.4320 ha         1 K7O       0.129000
     26 H29         96.2870   -13.5140     5.5050 ha         1 K7O       0.112000
     27 H31         93.1830   -12.1130    12.2820 hc         1 K7O       0.076200
     28 H30         94.6530   -11.1540    12.2250 hc         1 K7O       0.076200
     29 H21         93.4290    -9.3470    10.9630 hc         1 K7O       0.069700
     30 H33         91.9580   -10.3020    11.0170 hc         1 K7O       0.069700
     31 H34         91.5140   -14.4800     6.6230 hc         1 K7O       0.038367
     32 H36         92.3080   -15.8500     7.4200 hc         1 K7O       0.038367
     33 H35         91.5790   -14.5640     8.3840 hc         1 K7O       0.038367
     34 H37         93.1120   -14.7020     4.6580 hc         1 K7O       0.041033
     35 H39         94.8300   -15.0110     4.3870 hc         1 K7O       0.041033
     36 H38         93.9070   -16.0720     5.4570 hc         1 K7O       0.041033
     37 H22         89.7090   -10.8770    15.3520 hc         1 K7O       0.071367
     38 H40         89.1270   -10.0560    16.7910 hc         1 K7O       0.071367
     39 H42         88.6900    -9.4380    15.1920 hc         1 K7O       0.071367
     40 H27         92.3410   -13.1910     9.9710 hn         1 K7O       0.354000
     41 C20         92.8820   -10.0830    11.5650 c3         1 K7O      -0.082700
     42 C23         89.5010    -9.8880    15.7760 c3         1 K7O      -0.049800
@<TRIPOS>BOND
     1     1     2 1   
     2     1     3 2   
     3     1    24 1   
     4     2    15 2   
     5     2    22 1   
     6     3     4 1   
     7     3    23 1   
     8     4     5 2   
     9     4    16 1   
    10     5    18 1   
    11     6     8 ar  
    12     6    20 1   
    13     6    21 ar  
    14     7    12 1   
    15     7    19 2   
    16     7    20 1   
    17     8     9 ar  
    18     8    13 1   
    19     9    11 ar  
    20     9    14 1   
    21    10    11 ar  
    22    10    21 ar  
    23    10    25 1   
    24    11    26 1   
    25    12    27 1   
    26    12    28 1   
    27    12    41 1   
    28    13    31 1   
    29    13    32 1   
    30    13    33 1   
    31    14    34 1   
    32    14    35 1   
    33    14    36 1   
    34    15    16 1   
    35    15    42 1   
    36    16    17 1   
    37    17    18 2   
    38    18    41 1   
    39    19    21 1   
    40    20    40 1   
    41    29    41 1   
    42    30    41 1   
    43    37    42 1   
    44    38    42 1   
    45    39    42 1   
@<TRIPOS>SUBSTRUCTURE
     1 K7O         1 TEMP              0 ****  ****    0 ROOT
