@<TRIPOS>MOLECULE
K7P
   39    40     1     0     0
SMALL
abcg2


@<TRIPOS>ATOM
      1 C8          -4.2380     3.1740    16.2640 ca         1 K7P      -0.017500
      2 O1          -2.2290     5.5580     8.3960 oh         1 K7P      -0.709000
      3 O2          -2.7030     2.8900     9.5280 oh         1 K7P      -0.665000
      4 C7          -4.1430     4.2420    15.3930 ca         1 K7P      -0.103000
      5 C1          -3.5470     6.4470    10.1810 c6         1 K7P       0.158300
      6 C2          -3.1860     5.1960     9.3600 c6         1 K7P       0.153300
      7 C3          -2.6940     4.0800    10.2740 c6         1 K7P       0.132300
      8 C4          -3.6100     3.9960    11.4920 c6         1 K7P       0.107300
      9 C5          -3.4420     5.2970    12.2910 c6         1 K7P       0.306300
     10 C6          -5.0660     4.3890    14.3560 ca         1 K7P      -0.068000
     11 O3          -3.2300     2.8870    12.2670 oh         1 K7P      -0.719000
     12 O5          -5.2460     1.4310    18.6060 o          1 K7P      -0.540000
     13 O4          -6.6250     0.1780    16.9370 o          1 K7P      -0.540000
     14 N           -4.0370     0.0640    16.9220 n8         1 K7P      -1.009100
     15 C9          -5.2710     2.2550    16.1020 ca         1 K7P      -0.255500
     16 C10         -6.2050     2.3940    15.0900 ca         1 K7P      -0.017500
     17 C11         -6.0960     3.4660    14.2130 ca         1 K7P      -0.103000
     18 S           -4.9710     5.7670    13.2480 ss         1 K7P      -0.250000
     19 O6          -3.0630     6.3800    11.5140 os         1 K7P      -0.390000
     20 H1          -3.5150     3.0630    17.0610 ha         1 K7P       0.141000
     21 H2          -2.0640     4.7960     7.8310 ho         1 K7P       0.523000
     22 H3          -2.3570     2.1840    10.0830 ho         1 K7P       0.466000
     23 H4          -3.3490     4.9670    15.5180 ha         1 K7P       0.132000
     24 H5          -3.0120     7.2980     9.7520 h1         1 K7P       0.118700
     25 H6          -4.1000     4.8250     8.8700 h1         1 K7P       0.045700
     26 H7          -1.6750     4.3200    10.6120 h1         1 K7P       0.069700
     27 H8          -4.6460     3.8860    11.1440 h1         1 K7P       0.059700
     28 H9          -2.6510     5.1440    13.0290 h2         1 K7P       0.101700
     29 H10         -4.0100     2.4950    12.6710 ho         1 K7P       0.519000
     30 H11         -3.7600    -0.5210    17.7050 hn         1 K7P       0.476000
     31 H12         -4.1080    -0.4870    16.0720 hn         1 K7P       0.476000
     32 H13         -7.0080     1.6800    14.9700 ha         1 K7P       0.141000
     33 H14         -6.8120     3.5760    13.4090 ha         1 K7P       0.132000
     34 H17         -6.2640     7.9900    10.9200 ho         1 K7P       0.509000
     35 S1          -5.4120     0.9150    17.2550 sy         1 K7P       1.126600
     36 C           -5.0370     6.7360    10.1060 c3         1 K7P       0.137600
     37 O           -5.3110     7.8770    10.8760 oh         1 K7P      -0.699000
     38 H15         -5.2820     6.8820     9.0450 h1         1 K7P       0.027200
     39 H16         -5.6170     5.8680    10.4440 h1         1 K7P       0.027200
@<TRIPOS>BOND
     1     1     4 ar  
     2     1    15 ar  
     3     1    20 1   
     4     2     6 1   
     5     2    21 1   
     6     3     7 1   
     7     3    22 1   
     8     4    10 ar  
     9     4    23 1   
    10     5     6 1   
    11     5    19 1   
    12     5    24 1   
    13     5    36 1   
    14     6     7 1   
    15     6    25 1   
    16     7     8 1   
    17     7    26 1   
    18     8     9 1   
    19     8    11 1   
    20     8    27 1   
    21     9    18 1   
    22     9    19 1   
    23     9    28 1   
    24    10    17 ar  
    25    10    18 1   
    26    11    29 1   
    27    12    35 2   
    28    13    35 2   
    29    14    30 1   
    30    14    31 1   
    31    14    35 1   
    32    15    16 ar  
    33    15    35 1   
    34    16    17 ar  
    35    16    32 1   
    36    17    33 1   
    37    34    37 1   
    38    36    37 1   
    39    36    38 1   
    40    36    39 1   
@<TRIPOS>SUBSTRUCTURE
     1 K7P         1 TEMP              0 ****  ****    0 ROOT
