@<TRIPOS>MOLECULE
K7P
   39    40     1     0     0
SMALL
No Charge or Current Charge


@<TRIPOS>ATOM
      1 C8          -4.1260     3.1050    16.1720 ca         1 K7P      -0.017500
      2 O1          -2.2250     5.4910     8.2430 oh         1 K7P      -0.709000
      3 O2          -2.3270     2.9130     9.6980 oh         1 K7P      -0.665000
      4 C7          -4.0660     4.1910    15.2820 ca         1 K7P      -0.103000
      5 C1          -3.6150     6.5180    10.0460 c6         1 K7P       0.158300
      6 C2          -3.1440     5.2110     9.3150 c6         1 K7P       0.153300
      7 C3          -2.4950     4.2010    10.3120 c6         1 K7P       0.132300
      8 C4          -3.3880     4.0810    11.5720 c6         1 K7P       0.107300
      9 C5          -3.4370     5.4660    12.3130 c6         1 K7P       0.306300
     10 C6          -5.1030     4.4040    14.3550 ca         1 K7P      -0.068000
     11 O3          -2.9280     3.0050    12.4260 oh         1 K7P      -0.719000
     12 O5          -4.4330     1.0480    18.4270 o          1 K7P      -0.540000
     13 O4          -6.6830     0.3580    17.4240 o          1 K7P      -0.540000
     14 N           -4.5750    -0.3620    16.4520 n8         1 K7P      -1.009100
     15 C9          -5.2300     2.2260    16.1410 ca         1 K7P      -0.255500
     16 C10         -6.2710     2.4450    15.2150 ca         1 K7P      -0.017500
     17 C11         -6.2060     3.5340    14.3280 ca         1 K7P      -0.103000
     18 S           -5.0330     5.7730    13.2100 ss         1 K7P      -0.250000
     19 O6          -3.1140     6.5720    11.4200 os         1 K7P      -0.390000
     20 H1          -3.3160     2.9510    16.8840 ha         1 K7P       0.141000
     21 H2          -1.8530     4.6130     7.9830 ho         1 K7P       0.523000
     22 H3          -2.3190     2.2850    10.4600 ho         1 K7P       0.466000
     23 H4          -3.2170     4.8690    15.3220 ha         1 K7P       0.132000
     24 H5          -3.1780     7.3730     9.5110 h1         1 K7P       0.118700
     25 H6          -4.0390     4.7250     8.8960 h1         1 K7P       0.045700
     26 H7          -1.5150     4.5950    10.6270 h1         1 K7P       0.069700
     27 H8          -4.4090     3.8540    11.2290 h1         1 K7P       0.059700
     28 H9          -2.6680     5.4540    13.0980 h2         1 K7P       0.101700
     29 H10         -3.5890     2.9010    13.1520 ho         1 K7P       0.519000
     30 H11         -3.8890    -0.6640    17.1400 hn         1 K7P       0.476000
     31 H12         -5.2810    -1.0910    16.5200 hn         1 K7P       0.476000
     32 H13         -7.1300     1.7770    15.1780 ha         1 K7P       0.141000
     33 H14         -7.0110     3.6990    13.6160 ha         1 K7P       0.132000
     34 H17         -6.5810     7.9620    10.5850 ho         1 K7P       0.509000
     35 S1          -5.3110     0.8360    17.2790 sy         1 K7P       1.126600
     36 C           -5.1660     6.7250     9.9880 c3         1 K7P       0.137600
     37 O           -5.5960     7.9580    10.5970 oh         1 K7P      -0.699000
     38 H15         -5.4630     6.7180     8.9300 h1         1 K7P       0.027200
     39 H16         -5.6620     5.8680    10.4610 h1         1 K7P       0.027200
@<TRIPOS>BOND
     1     1     4 ar  
     2     1    15 ar  
     3     1    20 1   
     4     2     6 1   
     5     2    21 1   
     6     3     7 1   
     7     3    22 1   
     8     4    10 ar  
     9     4    23 1   
    10     5     6 1   
    11     5    19 1   
    12     5    24 1   
    13     5    36 1   
    14     6     7 1   
    15     6    25 1   
    16     7     8 1   
    17     7    26 1   
    18     8     9 1   
    19     8    11 1   
    20     8    27 1   
    21     9    18 1   
    22     9    19 1   
    23     9    28 1   
    24    10    17 ar  
    25    10    18 1   
    26    11    29 1   
    27    12    35 2   
    28    13    35 2   
    29    14    30 1   
    30    14    31 1   
    31    14    35 1   
    32    15    16 ar  
    33    15    35 1   
    34    16    17 ar  
    35    16    32 1   
    36    17    33 1   
    37    34    37 1   
    38    36    37 1   
    39    36    38 1   
    40    36    39 1   
@<TRIPOS>SUBSTRUCTURE
     1 K7P         1 TEMP              0 ****  ****    0 ROOT
