@<TRIPOS>MOLECULE
K7Q
   36    37     1     0     0
SMALL
No Charge or Current Charge


@<TRIPOS>ATOM
      1 C10         18.9560    21.1530   -10.1010 c          1 K7Q       0.609700
      2 N12         19.3150    22.2890   -10.7960 ns         1 K7Q      -0.501900
      3 C13         20.0520    23.4490   -10.2650 c3         1 K7Q       0.105000
      4 C17         20.5410    18.1470    -7.1990 cc         1 K7Q      -0.175000
      5 C02         19.3110    20.2100    -6.4140 ca         1 K7Q      -0.197000
      6 C03         19.3990    20.1730    -7.7910 ca         1 K7Q      -0.013800
      7 C04         18.8710    21.2060    -8.5940 ca         1 K7Q      -0.138600
      8 C05         18.2130    22.2730    -7.9380 ca         1 K7Q      -0.042000
      9 C06         18.1220    22.3110    -6.5310 ca         1 K7Q      -0.195000
     10 C07         18.6800    21.2720    -5.7530 ca         1 K7Q       0.185100
     11 C09         17.9890    22.3070    -3.6220 c3         1 K7Q       0.149900
     12 C14         21.4060    23.0740    -9.6040 c3         1 K7Q       0.120800
     13 C16         20.1060    18.9840    -8.2150 cd         1 K7Q      -0.145200
     14 N15         22.1910    24.2640    -9.1980 n8         1 K7Q      -1.002200
     15 N19         21.8840    16.5550    -8.4440 nv         1 K7Q      -1.039200
     16 N20         21.1850    15.9810    -6.4070 n2         1 K7Q      -0.842100
     17 O08         18.6200    21.2550    -4.3730 os         1 K7Q      -0.344100
     18 O11         18.6480    20.1510   -10.7280 o          1 K7Q      -0.595100
     19 S01         20.0640    18.8050    -5.6060 ss         1 K7Q       0.117400
     20 H121        19.2600    22.2000   -11.8030 hn         1 K7Q       0.311500
     21 H132        20.2490    24.1270   -11.1060 h1         1 K7Q       0.061200
     22 H131        19.4280    23.9980    -9.5500 h1         1 K7Q       0.061200
     23 H051        17.7450    23.0650    -8.5180 ha         1 K7Q       0.121000
     24 H061        17.6080    23.1480    -6.0670 ha         1 K7Q       0.122000
     25 H091        18.0560    22.0990    -2.5470 h1         1 K7Q       0.047033
     26 H093        18.4780    23.2710    -3.8130 h1         1 K7Q       0.047033
     27 H092        16.9270    22.3920    -3.8860 h1         1 K7Q       0.047033
     28 H141        21.2260    22.4600    -8.7120 h1         1 K7Q       0.036700
     29 H142        22.0050    22.4840   -10.3110 h1         1 K7Q       0.036700
     30 H161        20.2720    18.7450    -9.2620 ha         1 K7Q       0.221000
     31 H151        23.0880    23.9570    -8.8010 hn         1 K7Q       0.398000
     32 H152        22.4710    24.7890   -10.0370 hn         1 K7Q       0.398000
     33 H191        22.4910    15.7510    -8.3480 hn         1 K7Q       0.476000
     34 H2          22.2660    17.3350    -8.9640 hn         1 K7Q       0.476000
     35 H202        20.5800    16.3330    -5.6560 hn         1 K7Q       0.390400
     36 C18         21.2460    16.8740    -7.3050 ce         1 K7Q       0.692500
@<TRIPOS>BOND
     1     1     2 1   
     2     1     7 1   
     3     1    18 2   
     4     2     3 1   
     5     2    20 1   
     6     3    12 1   
     7     3    21 1   
     8     3    22 1   
     9     4    13 2   
    10     4    19 1   
    11     4    36 1   
    12     5     6 ar  
    13     5    10 ar  
    14     5    19 1   
    15     6     7 ar  
    16     6    13 1   
    17     7     8 ar  
    18     8     9 ar  
    19     8    23 1   
    20     9    10 ar  
    21     9    24 1   
    22    10    17 1   
    23    11    17 1   
    24    11    25 1   
    25    11    26 1   
    26    11    27 1   
    27    12    14 1   
    28    12    28 1   
    29    12    29 1   
    30    13    30 1   
    31    14    31 1   
    32    14    32 1   
    33    15    33 1   
    34    15    34 1   
    35    15    36 1   
    36    16    35 1   
    37    16    36 2   
@<TRIPOS>SUBSTRUCTURE
     1 K7Q         1 TEMP              0 ****  ****    0 ROOT
