@<TRIPOS>MOLECULE
K7Q
   36    37     1     0     0
SMALL
abcg2


@<TRIPOS>ATOM
      1 C10         18.7570    21.2370   -10.0320 c          1 K7Q       0.609700
      2 N12         19.3240    22.2740   -10.6820 ns         1 K7Q      -0.501900
      3 C13         20.2080    23.2870   -10.1120 c3         1 K7Q       0.105000
      4 C17         20.5300    18.3620    -7.2010 cc         1 K7Q      -0.175000
      5 C02         19.2240    20.3020    -6.3770 ca         1 K7Q      -0.197000
      6 C03         19.3140    20.2650    -7.7810 ca         1 K7Q      -0.013800
      7 C04         18.7110    21.2920    -8.5370 ca         1 K7Q      -0.138600
      8 C05         18.0390    22.2960    -7.8640 ca         1 K7Q      -0.042000
      9 C06         17.9370    22.3170    -6.4650 ca         1 K7Q      -0.195000
     10 C07         18.5360    21.3210    -5.7050 ca         1 K7Q       0.185100
     11 C09         17.8280    22.2550    -3.6220 c3         1 K7Q       0.149900
     12 C14         21.6170    22.7560    -9.8610 c3         1 K7Q       0.120800
     13 C16         20.0760    19.1360    -8.2240 cd         1 K7Q      -0.145200
     14 N15         22.4610    23.8250    -9.3200 n8         1 K7Q      -1.002200
     15 N19         22.0500    16.9880    -8.4410 nv         1 K7Q      -1.039200
     16 N20         21.3250    16.1820    -6.4070 n2         1 K7Q      -0.842100
     17 O08         18.5190    21.2390    -4.3550 os         1 K7Q      -0.344100
     18 O11         18.2720    20.2770   -10.6390 o          1 K7Q      -0.595100
     19 S01         20.0590    18.9750    -5.6320 ss         1 K7Q       0.117400
     20 H121        19.3460    22.1690   -11.6870 hn         1 K7Q       0.311500
     21 H132        20.2430    24.1160   -10.8200 h1         1 K7Q       0.061200
     22 H131        19.7900    23.6680    -9.1840 h1         1 K7Q       0.061200
     23 H051        17.5660    23.0900    -8.4270 ha         1 K7Q       0.121000
     24 H061        17.3910    23.1170    -5.9890 ha         1 K7Q       0.122000
     25 H091        17.9460    21.9940    -2.5740 h1         1 K7Q       0.047033
     26 H093        18.2670    23.2360    -3.8120 h1         1 K7Q       0.047033
     27 H092        16.7680    22.2670    -3.8850 h1         1 K7Q       0.047033
     28 H141        21.5660    21.9520    -9.1230 h1         1 K7Q       0.036700
     29 H142        22.0020    22.3170   -10.7910 h1         1 K7Q       0.036700
     30 H161        20.2520    18.9080    -9.2650 ha         1 K7Q       0.221000
     31 H151        23.3560    23.4450    -9.0310 hn         1 K7Q       0.398000
     32 H152        22.6650    24.5050   -10.0460 hn         1 K7Q       0.398000
     33 H191        22.6830    16.2040    -8.4900 hn         1 K7Q       0.476000
     34 H2          22.3380    17.8190    -8.9300 hn         1 K7Q       0.476000
     35 H202        20.6600    16.3780    -5.6640 hn         1 K7Q       0.390400
     36 C18         21.3230    17.1170    -7.2920 ce         1 K7Q       0.692500
@<TRIPOS>BOND
     1     1     2 1   
     2     1     7 1   
     3     1    18 2   
     4     2     3 1   
     5     2    20 1   
     6     3    12 1   
     7     3    21 1   
     8     3    22 1   
     9     4    13 2   
    10     4    19 1   
    11     4    36 1   
    12     5     6 ar  
    13     5    10 ar  
    14     5    19 1   
    15     6     7 ar  
    16     6    13 1   
    17     7     8 ar  
    18     8     9 ar  
    19     8    23 1   
    20     9    10 ar  
    21     9    24 1   
    22    10    17 1   
    23    11    17 1   
    24    11    25 1   
    25    11    26 1   
    26    11    27 1   
    27    12    14 1   
    28    12    28 1   
    29    12    29 1   
    30    13    30 1   
    31    14    31 1   
    32    14    32 1   
    33    15    33 1   
    34    15    34 1   
    35    15    36 1   
    36    16    35 1   
    37    16    36 2   
@<TRIPOS>SUBSTRUCTURE
     1 K7Q         1 TEMP              0 ****  ****    0 ROOT
