@<TRIPOS>MOLECULE
K7S
   49    52     1     0     0
SMALL
bcc


@<TRIPOS>ATOM
      1 C1          -3.0900     0.5970     0.3340 cp         1 K7S      -0.041000
      2 C2          -2.9640    -0.5540     1.1150 ca         1 K7S      -0.111000
      3 C3          -3.9090    -1.5760     1.0810 ca         1 K7S      -0.128000
      4 C12         -2.0330     1.6350     0.3850 cp         1 K7S      -0.013000
      5 C13         -0.7250     1.2410     0.1060 ca         1 K7S      -0.124000
      6 C14          0.3210     2.1570     0.1360 ca         1 K7S       0.058600
      7 C15          0.0420     3.4860     0.4410 ca         1 K7S      -0.169000
      8 C16         -1.2560     3.8730     0.7190 ca         1 K7S      -0.108000
      9 C17         -2.3160     2.9700     0.7060 ca         1 K7S      -0.077300
     10 C19         -3.6980     3.4450     1.0540 c3         1 K7S      -0.044800
     11 C20          2.2570     0.6290     0.0450 c          1 K7S       0.685700
     12 C21          3.6790     0.5550    -0.4120 ca         1 K7S      -0.161600
     13 C22          4.1570     1.2780    -1.5030 ca         1 K7S      -0.077000
     14 C23          5.4750     1.1390    -1.9070 ca         1 K7S      -0.143000
     15 C24          6.3310     0.2870    -1.2250 ca         1 K7S      -0.056000
     16 C25          5.8550    -0.4370    -0.1390 ca         1 K7S      -0.206300
     17 C26          4.5300    -0.3140     0.2580 ca         1 K7S      -0.027000
     18 C28          6.7400    -1.3720     0.6250 c3         1 K7S       0.723200
     19 C4          -4.9870    -1.4180     0.2330 ca         1 K7S       0.006600
     20 C5          -5.1220    -0.2700    -0.5550 ca         1 K7S      -0.000400
     21 C6          -4.1880     0.7440    -0.5200 ca         1 K7S      -0.116000
     22 N7          -6.0660    -2.2290    -0.0400 n          1 K7S      -0.361000
     23 C8          -6.8810    -1.6300    -0.9750 c          1 K7S       0.804500
     24 N9          -6.2820    -0.4320    -1.2780 ns         1 K7S      -0.457100
     25 O10         -7.9160    -2.0740    -1.4370 o          1 K7S      -0.639500
     26 N18          1.6460     1.8170    -0.1770 ns         1 K7S      -0.470100
     27 O27          1.7200    -0.3250     0.5810 o          1 K7S      -0.571100
     28 F29          6.7960    -1.0450     1.9240 f          1 K7S      -0.232300
     29 F30          6.2900    -2.6330     0.5700 f          1 K7S      -0.232300
     30 F31          7.9950    -1.3830     0.1690 f          1 K7S      -0.232300
     31 H1          -2.1120    -0.6520     1.7760 ha         1 K7S       0.146000
     32 H2          -3.7950    -2.4570     1.7000 ha         1 K7S       0.144000
     33 H3          -7.1940    -3.9570     0.1110 h1         1 K7S       0.051367
     34 H4          -5.4660    -4.1790     0.4060 h1         1 K7S       0.051367
     35 H5          -6.4870    -3.4100     1.6360 h1         1 K7S       0.051367
     36 H6          -0.5440     0.2100    -0.1600 ha         1 K7S       0.160000
     37 H7           0.8400     4.2180     0.4690 ha         1 K7S       0.129000
     38 H8          -1.4490     4.9090     0.9690 ha         1 K7S       0.132000
     39 H9          -4.2980     3.6460     0.1640 hc         1 K7S       0.044033
     40 H10         -4.2450     2.7130     1.6490 hc         1 K7S       0.044033
     41 H11         -3.6510     4.3740     1.6230 hc         1 K7S       0.044033
     42 H12          3.5060     1.9360    -2.0640 ha         1 K7S       0.139000
     43 H13          5.8380     1.6920    -2.7620 ha         1 K7S       0.144000
     44 H14          7.3580     0.1970    -1.5510 ha         1 K7S       0.153000
     45 H15          4.1490    -0.8830     1.0960 ha         1 K7S       0.169000
     46 H16         -4.2920     1.6170    -1.1500 ha         1 K7S       0.142000
     47 H17         -6.6690     0.2230    -1.9370 hn         1 K7S       0.354500
     48 H18          2.2340     2.5920    -0.4480 hn         1 K7S       0.320500
     49 C11         -6.3130    -3.5120     0.5650 c3         1 K7S       0.104300
@<TRIPOS>BOND
     1     1     2 ar  
     2     1     4 1   
     3     1    21 ar  
     4     2     3 ar  
     5     2    31 1   
     6     3    19 ar  
     7     3    32 1   
     8     4     5 ar  
     9     4     9 ar  
    10     5     6 ar  
    11     5    36 1   
    12     6     7 ar  
    13     6    26 1   
    14     7     8 ar  
    15     7    37 1   
    16     8     9 ar  
    17     8    38 1   
    18     9    10 1   
    19    10    39 1   
    20    10    40 1   
    21    10    41 1   
    22    11    12 1   
    23    11    26 1   
    24    11    27 2   
    25    12    13 ar  
    26    12    17 ar  
    27    13    14 ar  
    28    13    42 1   
    29    14    15 ar  
    30    14    43 1   
    31    15    16 ar  
    32    15    44 1   
    33    16    17 ar  
    34    16    18 1   
    35    17    45 1   
    36    18    28 1   
    37    18    29 1   
    38    18    30 1   
    39    19    20 ar  
    40    19    22 1   
    41    20    21 ar  
    42    20    24 1   
    43    21    46 1   
    44    22    23 1   
    45    22    49 1   
    46    23    24 1   
    47    23    25 2   
    48    24    47 1   
    49    26    48 1   
    50    33    49 1   
    51    34    49 1   
    52    35    49 1   
@<TRIPOS>SUBSTRUCTURE
     1 K7S         1 TEMP              0 ****  ****    0 ROOT
