@<TRIPOS>MOLECULE
K7S
   49    52     1     0     0
SMALL
No Charge or Current Charge


@<TRIPOS>ATOM
      1 C1          -3.1560     0.5710     0.3290 cp         1 K7S      -0.041000
      2 C2          -3.0660    -0.4940     1.2780 ca         1 K7S      -0.093000
      3 C3          -4.0440    -1.5120     1.3470 ca         1 K7S      -0.110000
      4 C12         -2.0900     1.6170     0.2670 cp         1 K7S      -0.013000
      5 C13         -0.7380     1.2140     0.1450 ca         1 K7S      -0.106000
      6 C14          0.3110     2.1560     0.0740 ca         1 K7S      -0.034000
      7 C15         -0.0060     3.5230     0.1170 ca         1 K7S      -0.151000
      8 C16         -1.3380     3.9450     0.2480 ca         1 K7S      -0.090000
      9 C17         -2.3850     3.0090     0.3310 ca         1 K7S      -0.077300
     10 C19         -3.8070     3.5320     0.5120 c3         1 K7S      -0.044800
     11 C20          2.3510     0.5850     0.0120 c          1 K7S       0.618700
     12 C21          3.8500     0.6370    -0.2240 ca         1 K7S      -0.161600
     13 C22          4.5280     1.8470    -0.5090 ca         1 K7S      -0.059000
     14 C23          5.9170     1.8510    -0.7160 ca         1 K7S      -0.125000
     15 C24          6.6510     0.6580    -0.6480 ca         1 K7S      -0.038000
     16 C25          5.9970    -0.5620    -0.3750 ca         1 K7S      -0.206300
     17 C26          4.6020    -0.5600    -0.1590 ca         1 K7S      -0.009000
     18 C28          6.7830    -1.8750    -0.2880 c3         1 K7S       0.359300
     19 C4          -5.1450    -1.4130     0.4890 ca         1 K7S       0.006600
     20 C5          -5.1950    -0.4390    -0.4900 ca         1 K7S      -0.000400
     21 C6          -4.2380     0.5730    -0.5960 ca         1 K7S      -0.098000
     22 N7          -6.1860    -2.3440     0.1930 n          1 K7S      -0.294000
     23 C8          -6.9310    -1.9040    -0.9150 c          1 K7S       0.595000
     24 N9          -6.2910    -0.7590    -1.2970 ns         1 K7S      -0.503600
     25 O10         -7.9280    -2.4000    -1.4130 o          1 K7S      -0.564000
     26 N18          1.6830     1.8030    -0.0590 ns         1 K7S      -0.144000
     27 O27          1.7880    -0.4760     0.2580 o          1 K7S      -0.571100
     28 F29          7.0510    -2.2000     0.9970 f          1 K7S      -0.111000
     29 F30          6.1000    -2.9120    -0.8240 f          1 K7S      -0.111000
     30 F31          7.9690    -1.8180    -0.9360 f          1 K7S      -0.111000
     31 H1          -2.2200    -0.5290     1.9600 ha         1 K7S       0.128000
     32 H2          -3.9480    -2.3350     2.0510 ha         1 K7S       0.126000
     33 H3          -7.2690    -4.1260     0.5590 h1         1 K7S       0.051367
     34 H4          -5.7570    -3.9540     1.4920 h1         1 K7S       0.051367
     35 H5          -7.1940    -2.9830     1.9330 h1         1 K7S       0.051367
     36 H6          -0.5320     0.1510     0.0870 ha         1 K7S       0.142000
     37 H7           0.7840     4.2680     0.0570 ha         1 K7S       0.111000
     38 H8          -1.5550     5.0110     0.2910 ha         1 K7S       0.114000
     39 H9          -4.3300     3.5940    -0.4490 hc         1 K7S       0.044033
     40 H10         -4.3940     2.8870     1.1770 hc         1 K7S       0.044033
     41 H11         -3.8130     4.5350     0.9550 hc         1 K7S       0.044033
     42 H12          4.0000     2.7950    -0.5720 ha         1 K7S       0.121000
     43 H13          6.4290     2.7870    -0.9290 ha         1 K7S       0.126000
     44 H14          7.7270     0.6900    -0.8050 ha         1 K7S       0.135000
     45 H15          4.0980    -1.5000     0.0650 ha         1 K7S       0.151000
     46 H16         -4.3030     1.3210    -1.3810 ha         1 K7S       0.124000
     47 H17         -6.6070    -0.2030    -2.0860 hn         1 K7S       0.468000
     48 H18          2.2860     2.5920    -0.2430 hn         1 K7S       0.154000
     49 C11         -6.6290    -3.4170     1.0980 c3         1 K7S       0.104300
@<TRIPOS>BOND
     1     1     2 ar  
     2     1     4 1   
     3     1    21 ar  
     4     2     3 ar  
     5     2    31 1   
     6     3    19 ar  
     7     3    32 1   
     8     4     5 ar  
     9     4     9 ar  
    10     5     6 ar  
    11     5    36 1   
    12     6     7 ar  
    13     6    26 1   
    14     7     8 ar  
    15     7    37 1   
    16     8     9 ar  
    17     8    38 1   
    18     9    10 1   
    19    10    39 1   
    20    10    40 1   
    21    10    41 1   
    22    11    12 1   
    23    11    26 1   
    24    11    27 2   
    25    12    13 ar  
    26    12    17 ar  
    27    13    14 ar  
    28    13    42 1   
    29    14    15 ar  
    30    14    43 1   
    31    15    16 ar  
    32    15    44 1   
    33    16    17 ar  
    34    16    18 1   
    35    17    45 1   
    36    18    28 1   
    37    18    29 1   
    38    18    30 1   
    39    19    20 ar  
    40    19    22 1   
    41    20    21 ar  
    42    20    24 1   
    43    21    46 1   
    44    22    23 1   
    45    22    49 1   
    46    23    24 1   
    47    23    25 2   
    48    24    47 1   
    49    26    48 1   
    50    33    49 1   
    51    34    49 1   
    52    35    49 1   
@<TRIPOS>SUBSTRUCTURE
     1 K7S         1 TEMP              0 ****  ****    0 ROOT
