@<TRIPOS>MOLECULE
K7U
   30    31     1     0     0
SMALL
No Charge or Current Charge


@<TRIPOS>ATOM
      1 C02         66.6330    28.7860  -184.5000 ca         1 K7U       0.605900
      2 C03         66.5610    29.8610  -185.3890 ca         1 K7U      -0.228000
      3 C04         65.2970    30.2850  -185.8260 ca         1 K7U      -0.000300
      4 C05         64.1810    29.5910  -185.3320 ca         1 K7U      -0.201000
      5 C06         64.3770    28.5200  -184.4420 ca         1 K7U       0.518000
      6 C07         65.1420    31.4510  -186.7880 c3         1 K7U      -0.053800
      7 C08         63.2560    27.7900  -183.9220 cg         1 K7U      -0.201000
      8 C09         62.2960    27.1820  -183.4880 c1         1 K7U      -0.113100
      9 C10         61.1090    26.4890  -182.9680 c3         1 K7U       0.253900
     10 C12         59.4270    28.4520  -183.1380 cy         1 K7U       0.093800
     11 C13         57.9880    27.9660  -183.5340 cy         1 K7U       0.156000
     12 C14         58.5190    26.5670  -183.0580 cy         1 K7U       0.093800
     13 F15         57.6680    28.0640  -184.8560 f          1 K7U      -0.101000
     14 F16         56.9610    28.4910  -182.8140 f          1 K7U      -0.101000
     15 N01         65.5950    28.1150  -184.0270 nb         1 K7U      -0.731000
     16 N02         67.7820    28.2970  -184.0270 nv         1 K7U      -1.059900
     17 N11         59.8630    27.0630  -183.4910 nq         1 K7U      -0.688600
     18 H1          67.4660    30.3570  -185.7280 ha         1 K7U       0.120000
     19 H2          63.1750    29.8730  -185.6310 ha         1 K7U       0.128000
     20 H3          65.0290    32.3950  -186.2420 hc         1 K7U       0.047700
     21 H4          66.0150    31.5460  -187.4450 hc         1 K7U       0.047700
     22 H5          64.2600    31.3260  -187.4270 hc         1 K7U       0.047700
     23 H6          61.1650    25.4300  -183.2520 h1         1 K7U       0.053700
     24 H7          61.1100    26.5490  -181.8710 h1         1 K7U       0.053700
     25 H8          59.8260    29.2600  -183.7620 h1         1 K7U       0.077700
     26 H9          59.5210    28.7150  -182.0770 h1         1 K7U       0.077700
     27 H10         58.4080    26.4030  -181.9780 h1         1 K7U       0.077700
     28 H11         58.1160    25.7110  -183.6110 h1         1 K7U       0.077700
     29 H12         67.7090    27.3850  -183.5930 hn         1 K7U       0.474500
     30 H13         68.6250    28.4800  -184.5600 hn         1 K7U       0.474500
@<TRIPOS>BOND
     1     1     2 ar  
     2     1    15 ar  
     3     1    16 1   
     4     2     3 ar  
     5     2    18 1   
     6     3     4 ar  
     7     3     6 1   
     8     4     5 ar  
     9     4    19 1   
    10     5     7 1   
    11     5    15 ar  
    12     6    20 1   
    13     6    21 1   
    14     6    22 1   
    15     7     8 3   
    16     8     9 1   
    17     9    17 1   
    18     9    23 1   
    19     9    24 1   
    20    10    11 1   
    21    10    17 1   
    22    10    25 1   
    23    10    26 1   
    24    11    12 1   
    25    11    13 1   
    26    11    14 1   
    27    12    17 1   
    28    12    27 1   
    29    12    28 1   
    30    16    29 1   
    31    16    30 1   
@<TRIPOS>SUBSTRUCTURE
     1 K7U         1 TEMP              0 ****  ****    0 ROOT
