@<TRIPOS>MOLECULE
K7U
   30    31     1     0     0
SMALL
bcc


@<TRIPOS>ATOM
      1 C02         65.9570    28.3240  -185.6470 ca         1 K7U       0.671200
      2 C03         66.4100    29.6510  -185.7830 ca         1 K7U      -0.311300
      3 C04         65.7010    30.6750  -185.1940 ca         1 K7U      -0.000300
      4 C05         64.5440    30.3470  -184.4770 ca         1 K7U      -0.284300
      5 C06         64.1750    29.0150  -184.3990 ca         1 K7U       0.583300
      6 C07         66.1430    32.1010  -185.3100 c3         1 K7U      -0.053800
      7 C08         62.9940    28.6480  -183.6740 cg         1 K7U      -0.201000
      8 C09         62.0020    28.3500  -183.0600 c1         1 K7U      -0.113100
      9 C10         60.7870    28.0070  -182.3300 c3         1 K7U       0.253900
     10 C12         59.4490    27.1830  -184.2610 cy         1 K7U       0.093800
     11 C13         58.2420    26.3990  -183.7640 cy         1 K7U       0.398600
     12 C14         58.8080    26.5160  -182.3560 cy         1 K7U       0.093800
     13 F15         58.1780    25.1270  -184.2320 f          1 K7U      -0.222300
     14 F16         57.0240    26.9400  -183.9840 f          1 K7U      -0.222300
     15 N01         64.8580    28.0170  -184.9680 nb         1 K7U      -0.731000
     16 N02         66.6670    27.2920  -186.1810 nv         1 K7U      -0.949500
     17 N11         60.0870    26.9130  -182.9630 nq         1 K7U      -0.688600
     18 H1          67.3110    29.8570  -186.3490 ha         1 K7U       0.138000
     19 H2          63.9460    31.1120  -184.0000 ha         1 K7U       0.146000
     20 H3          65.3520    32.7200  -185.7350 hc         1 K7U       0.047700
     21 H4          66.3780    32.5130  -184.3280 hc         1 K7U       0.047700
     22 H5          67.0260    32.1990  -185.9380 hc         1 K7U       0.047700
     23 H6          61.0480    27.7100  -181.3100 h1         1 K7U       0.053700
     24 H7          60.1580    28.9080  -182.2430 h1         1 K7U       0.053700
     25 H8          59.9770    26.7950  -185.1330 h1         1 K7U       0.077700
     26 H9          59.2010    28.2380  -184.4240 h1         1 K7U       0.077700
     27 H10         58.3140    27.3190  -181.7950 h1         1 K7U       0.077700
     28 H11         58.8400    25.6120  -181.7450 h1         1 K7U       0.077700
     29 H12         66.1880    26.4120  -186.2750 hn         1 K7U       0.419300
     30 H13         67.3170    27.4970  -186.9200 hn         1 K7U       0.419300
@<TRIPOS>BOND
     1     1     2 ar  
     2     1    15 ar  
     3     1    16 1   
     4     2     3 ar  
     5     2    18 1   
     6     3     4 ar  
     7     3     6 1   
     8     4     5 ar  
     9     4    19 1   
    10     5     7 1   
    11     5    15 ar  
    12     6    20 1   
    13     6    21 1   
    14     6    22 1   
    15     7     8 3   
    16     8     9 1   
    17     9    17 1   
    18     9    23 1   
    19     9    24 1   
    20    10    11 1   
    21    10    17 1   
    22    10    25 1   
    23    10    26 1   
    24    11    12 1   
    25    11    13 1   
    26    11    14 1   
    27    12    17 1   
    28    12    27 1   
    29    12    28 1   
    30    16    29 1   
    31    16    30 1   
@<TRIPOS>SUBSTRUCTURE
     1 K7U         1 TEMP              0 ****  ****    0 ROOT
