@<TRIPOS>MOLECULE
K7V
   39    39     1     0     0
SMALL
No Charge or Current Charge


@<TRIPOS>ATOM
      1 P1          -2.0430    -8.3530     2.0470 p5         1 K7V       1.332900
      2 P3          -6.6150    -4.6250     3.6330 p5         1 K7V       1.332900
      3 P4          -3.6050    -2.7440     7.8440 p5         1 K7V       1.338900
      4 P5          -3.5490    -7.4030     8.4050 p5         1 K7V       1.354900
      5 P6           1.0780    -6.0950     5.8810 p5         1 K7V       1.338900
      6 C1          -2.4230    -6.7150     4.1140 c6         1 K7V       0.222300
      7 C2          -3.7060    -5.8410     3.8210 c6         1 K7V       0.118300
      8 C3          -4.4860    -5.4230     5.1320 c6         1 K7V       0.222300
      9 C4          -3.4750    -4.7940     6.1620 c6         1 K7V       0.237300
     10 C5          -2.3330    -5.8190     6.5150 c6         1 K7V       0.207300
     11 C6          -1.5020    -6.0480     5.2030 c6         1 K7V       0.237300
     12 O11         -1.6840    -7.0280     2.8940 os         1 K7V      -0.616900
     13 O12         -3.4130    -4.6820     3.0070 oh         1 K7V      -0.709000
     14 O13         -5.6150    -4.5180     4.8910 os         1 K7V      -0.616900
     15 O14         -4.1070    -4.1880     7.3250 os         1 K7V      -0.577900
     16 O15         -2.7870    -7.1240     7.0090 os         1 K7V      -0.611400
     17 O16         -0.2890    -6.8220     5.4330 os         1 K7V      -0.577900
     18 O21         -1.1290    -8.4330     0.8740 o          1 K7V      -0.990500
     19 O23         -7.7750    -3.7220     3.8640 o          1 K7V      -0.990500
     20 O24         -2.1570    -2.7770     8.1850 o          1 K7V      -0.991667
     21 O25         -3.4830    -8.8670     8.6700 o          1 K7V      -0.987500
     22 O26          2.1590    -7.1160     5.9660 o          1 K7V      -0.991667
     23 O31         -3.4450    -8.3140     1.5530 o          1 K7V      -0.990500
     24 O33         -7.1220    -6.0170     3.4960 o          1 K7V      -0.990500
     25 O34         -4.3720    -2.3650     9.0650 o          1 K7V      -0.991667
     26 O35         -4.9860    -7.0260     8.3260 o          1 K7V      -0.987500
     27 O36          0.9320    -5.4560     7.2160 o          1 K7V      -0.991667
     28 O41         -1.8470    -9.5690     2.8840 o          1 K7V      -0.990500
     29 O43         -5.9190    -4.1930     2.3900 o          1 K7V      -0.990500
     30 O44         -3.8370    -1.7000     6.8080 o          1 K7V      -0.991667
     31 O45         -2.8720    -6.7060     9.5330 o          1 K7V      -0.987500
     32 O46          1.4780    -5.0700     4.8780 o          1 K7V      -0.991667
     33 H1          -2.7820    -7.6650     4.5370 h1         1 K7V       0.059700
     34 H2          -4.3870    -6.4880     3.2530 h1         1 K7V       0.022700
     35 H3          -4.8930    -6.3420     5.5780 h1         1 K7V       0.059700
     36 H4          -2.9770    -3.9740     5.6220 h1         1 K7V      -0.000300
     37 H5          -1.6830    -5.3630     7.2720 h1         1 K7V       0.070700
     38 H6          -1.2000    -5.0610     4.8230 h1         1 K7V      -0.000300
     39 H7          -4.3270    -4.3870     2.7110 ho         1 K7V       0.409000
@<TRIPOS>BOND
     1     1    12 1   
     2     1    18 1   
     3     1    23 1   
     4     1    28 1   
     5     2    14 1   
     6     2    19 1   
     7     2    24 1   
     8     2    29 1   
     9     3    15 1   
    10     3    20 1   
    11     3    25 1   
    12     3    30 1   
    13     4    16 1   
    14     4    21 1   
    15     4    26 1   
    16     4    31 1   
    17     5    17 1   
    18     5    22 1   
    19     5    27 1   
    20     5    32 1   
    21     6     7 1   
    22     6    11 1   
    23     6    12 1   
    24     6    33 1   
    25     7     8 1   
    26     7    13 1   
    27     7    34 1   
    28     8     9 1   
    29     8    14 1   
    30     8    35 1   
    31     9    10 1   
    32     9    15 1   
    33     9    36 1   
    34    10    11 1   
    35    10    16 1   
    36    10    37 1   
    37    11    17 1   
    38    11    38 1   
    39    13    39 1   
@<TRIPOS>SUBSTRUCTURE
     1 K7V         1 TEMP              0 ****  ****    0 ROOT
