@<TRIPOS>MOLECULE
K7V
   39    39     1     0     0
SMALL
abcg2


@<TRIPOS>ATOM
      1 P1          -1.8240    -8.5050     2.2600 p5         1 K7V       1.332900
      2 P3          -6.7600    -4.4990     3.5940 p5         1 K7V       1.332900
      3 P4          -4.1050    -2.7750     7.8440 p5         1 K7V       1.338900
      4 P5          -3.0360    -7.4530     8.5040 p5         1 K7V       1.354900
      5 P6           0.9960    -6.4050     5.8490 p5         1 K7V       1.338900
      6 C1          -2.4620    -6.6860     4.1470 c6         1 K7V       0.222300
      7 C2          -3.5840    -5.7500     3.6970 c6         1 K7V       0.118300
      8 C3          -4.4440    -5.2250     4.8580 c6         1 K7V       0.222300
      9 C4          -3.5800    -4.6490     5.9800 c6         1 K7V       0.237300
     10 C5          -2.5450    -5.6820     6.4440 c6         1 K7V       0.207300
     11 C6          -1.6310    -6.0430     5.2630 c6         1 K7V       0.237300
     12 O11         -1.6350    -7.0380     3.0490 os         1 K7V      -0.616900
     13 O12         -3.0300    -4.6310     2.9860 oh         1 K7V      -0.709000
     14 O13         -5.3000    -4.1960     4.3790 os         1 K7V      -0.616900
     15 O14         -4.4180    -4.2110     7.0370 os         1 K7V      -0.577900
     16 O15         -3.1850    -6.8450     6.9490 os         1 K7V      -0.611400
     17 O16         -0.5900    -6.9170     5.6580 os         1 K7V      -0.577900
     18 O21         -0.7420    -8.4020     1.1900 o          1 K7V      -0.990500
     19 O23         -7.5610    -3.2480     3.9390 o          1 K7V      -0.990500
     20 O24         -2.8450    -3.0040     8.6770 o          1 K7V      -0.991667
     21 O25         -2.6480    -8.9130     8.2740 o          1 K7V      -0.987500
     22 O26          1.7880    -7.6350     5.4120 o          1 K7V      -0.991667
     23 O31         -3.2480    -8.5260     1.7040 o          1 K7V      -0.990500
     24 O33         -7.3030    -5.7890     4.1990 o          1 K7V      -0.990500
     25 O34         -5.3760    -2.6150     8.6750 o          1 K7V      -0.991667
     26 O35         -4.4310    -7.2960     9.1110 o          1 K7V      -0.987500
     27 O36          1.1590    -6.0810     7.3340 o          1 K7V      -0.991667
     28 O41         -1.5780    -9.5960     3.3020 o          1 K7V      -0.990500
     29 O43         -6.4120    -4.6140     2.1110 o          1 K7V      -0.990500
     30 O44         -3.9230    -1.7090     6.7640 o          1 K7V      -0.991667
     31 O45         -1.9650    -6.6310     9.2120 o          1 K7V      -0.987500
     32 O46          1.1720    -5.1860     4.9450 o          1 K7V      -0.991667
     33 H1          -2.9300    -7.5830     4.5620 h1         1 K7V       0.059700
     34 H2          -4.2310    -6.3080     3.0160 h1         1 K7V       0.022700
     35 H3          -5.0440    -6.0450     5.2560 h1         1 K7V       0.059700
     36 H4          -3.0340    -3.7910     5.5780 h1         1 K7V      -0.000300
     37 H5          -1.9390    -5.2320     7.2290 h1         1 K7V       0.070700
     38 H6          -1.1900    -5.1210     4.8780 h1         1 K7V      -0.000300
     39 H7          -3.7630    -3.9970     2.9530 ho         1 K7V       0.409000
@<TRIPOS>BOND
     1     1    12 1   
     2     1    18 1   
     3     1    23 1   
     4     1    28 1   
     5     2    14 1   
     6     2    19 1   
     7     2    24 1   
     8     2    29 1   
     9     3    15 1   
    10     3    20 1   
    11     3    25 1   
    12     3    30 1   
    13     4    16 1   
    14     4    21 1   
    15     4    26 1   
    16     4    31 1   
    17     5    17 1   
    18     5    22 1   
    19     5    27 1   
    20     5    32 1   
    21     6     7 1   
    22     6    11 1   
    23     6    12 1   
    24     6    33 1   
    25     7     8 1   
    26     7    13 1   
    27     7    34 1   
    28     8     9 1   
    29     8    14 1   
    30     8    35 1   
    31     9    10 1   
    32     9    15 1   
    33     9    36 1   
    34    10    11 1   
    35    10    16 1   
    36    10    37 1   
    37    11    17 1   
    38    11    38 1   
    39    13    39 1   
@<TRIPOS>SUBSTRUCTURE
     1 K7V         1 TEMP              0 ****  ****    0 ROOT
