@<TRIPOS>MOLECULE
K7X
   45    46     1     0     0
SMALL
bcc


@<TRIPOS>ATOM
      1 NAN         10.0990   -39.7450   115.5720 n1         1 K7X      -0.324800
      2 CAM          9.9800   -39.4070   114.4780 cg         1 K7X       0.241800
      3 CAB          9.8160   -38.8720   113.1690 ca         1 K7X      -0.112300
      4 CAC          9.8000   -39.5980   111.9780 ca         1 K7X      -0.064300
      5 CAI          9.9940   -41.1010   111.9740 c3         1 K7X       0.728200
      6 FAK         11.1060   -41.4300   111.3170 f          1 K7X      -0.217967
      7 FAL          8.9680   -41.7210   111.3950 f          1 K7X      -0.217967
      8 FAJ         10.1040   -41.5970   113.2030 f          1 K7X      -0.217967
      9 CAD          9.6260   -38.9060   110.7830 ca         1 K7X      -0.168200
     10 BRAH         9.6060   -39.7750   109.1170 br         1 K7X      -0.043100
     11 CAE          9.4650   -37.5140   110.8020 ca         1 K7X       0.526600
     12 CAG          9.2730   -36.7010   109.5660 c3         1 K7X      -0.157400
     13 NAF          9.4850   -36.8490   111.9480 nb         1 K7X      -0.762000
     14 CAA          9.6620   -37.4770   113.0830 ca         1 K7X       0.712600
     15 OAO          9.6860   -36.7980   114.2160 os         1 K7X      -0.391100
     16 CAP          9.6070   -35.3860   114.1280 c3         1 K7X       0.062400
     17 CAQ         10.8680   -34.8350   113.4630 c          1 K7X       0.661100
     18 OAR         11.8660   -35.5260   113.3660 o          1 K7X      -0.580100
     19 NAS         10.8090   -33.5560   113.0400 n          1 K7X      -0.402000
     20 CBA         11.9720   -32.9460   112.3980 c3         1 K7X       0.109000
     21 CBB         12.0180   -33.1990   110.9000 c3         1 K7X      -0.112100
     22 CAT          9.6160   -32.7810   113.1140 ca         1 K7X       0.030600
     23 CAY          8.6770   -32.8510   112.0890 ca         1 K7X      -0.129000
     24 CAX          7.5170   -32.0850   112.1320 ca         1 K7X      -0.068300
     25 CAZ          6.4810   -32.1860   111.0510 c3         1 K7X      -0.048800
     26 CAW          7.3260   -31.2330   113.2200 ca         1 K7X      -0.124000
     27 CAV          8.2640   -31.1550   114.2370 ca         1 K7X      -0.119000
     28 CAU          9.4150   -31.9310   114.1910 ca         1 K7X      -0.133000
     29 H1           9.1670   -35.6530   109.8340 hc         1 K7X       0.067033
     30 H2          10.1240   -36.8020   108.8910 hc         1 K7X       0.067033
     31 H3           8.3830   -37.0120   109.0160 hc         1 K7X       0.067033
     32 H4           8.6970   -35.0820   113.6140 h1         1 K7X       0.089200
     33 H5           9.5480   -35.0310   115.1590 h1         1 K7X       0.089200
     34 H6          11.9330   -31.8760   112.6020 h1         1 K7X       0.059200
     35 H7          12.8730   -33.3280   112.8770 h1         1 K7X       0.059200
     36 H8          12.9000   -32.7220   110.4720 hc         1 K7X       0.042700
     37 H9          12.0710   -34.2650   110.6800 hc         1 K7X       0.042700
     38 H10         11.1420   -32.7880   110.3980 hc         1 K7X       0.042700
     39 H11          8.8540   -33.5220   111.2560 ha         1 K7X       0.143000
     40 H12          5.6040   -32.7320   111.4040 hc         1 K7X       0.046033
     41 H13          6.1400   -31.2000   110.7350 hc         1 K7X       0.046033
     42 H14          6.8640   -32.7090   110.1740 hc         1 K7X       0.046033
     43 H15          6.4320   -30.6240   113.2670 ha         1 K7X       0.135000
     44 H16          8.0990   -30.4870   115.0720 ha         1 K7X       0.138000
     45 H17         10.1520   -31.8750   114.9820 ha         1 K7X       0.143000
@<TRIPOS>BOND
     1     1     2 3   
     2     2     3 1   
     3     3     4 ar  
     4     3    14 ar  
     5     4     5 1   
     6     4     9 ar  
     7     5     6 1   
     8     5     7 1   
     9     5     8 1   
    10     9    10 1   
    11     9    11 ar  
    12    11    12 1   
    13    11    13 ar  
    14    12    29 1   
    15    12    30 1   
    16    12    31 1   
    17    13    14 ar  
    18    14    15 1   
    19    15    16 1   
    20    16    17 1   
    21    16    32 1   
    22    16    33 1   
    23    17    18 2   
    24    17    19 1   
    25    19    20 1   
    26    19    22 1   
    27    20    21 1   
    28    20    34 1   
    29    20    35 1   
    30    21    36 1   
    31    21    37 1   
    32    21    38 1   
    33    22    23 ar  
    34    22    28 ar  
    35    23    24 ar  
    36    23    39 1   
    37    24    25 1   
    38    24    26 ar  
    39    25    40 1   
    40    25    41 1   
    41    25    42 1   
    42    26    27 ar  
    43    26    43 1   
    44    27    28 ar  
    45    27    44 1   
    46    28    45 1   
@<TRIPOS>SUBSTRUCTURE
     1 K7X         1 TEMP              0 ****  ****    0 ROOT
