@<TRIPOS>MOLECULE
K7X
   45    46     1     0     0
SMALL
No Charge or Current Charge


@<TRIPOS>ATOM
      1 NAN         10.2940   -39.6540   115.5540 n1         1 K7X      -0.414000
      2 CAM         10.0670   -39.3710   114.4440 cg         1 K7X       0.331000
      3 CAB          9.7840   -39.0100   113.0820 ca         1 K7X      -0.047000
      4 CAC          9.8510   -39.9250   111.9830 ca         1 K7X      -0.064300
      5 CAI         10.2340   -41.4300   112.1040 c3         1 K7X       0.364300
      6 FAK         11.3330   -41.7190   111.3700 f          1 K7X      -0.096667
      7 FAL          9.2380   -42.2290   111.6580 f          1 K7X      -0.096667
      8 FAJ         10.5110   -41.8640   113.3530 f          1 K7X      -0.096667
      9 CAD          9.5390   -39.3840   110.7010 ca         1 K7X      -0.102900
     10 BrAH         9.5810   -40.4690   109.0980 br         1 K7X      -0.043100
     11 CAE          9.1850   -38.0220   110.5790 ca         1 K7X       0.461300
     12 CAG          8.8390   -37.3910   109.2420 c3         1 K7X      -0.157400
     13 NAF          9.1270   -37.1830   111.6250 nb         1 K7X      -0.762000
     14 CAA          9.4300   -37.6630   112.8470 ca         1 K7X       0.647300
     15 OAO          9.3490   -36.7880   113.9160 os         1 K7X      -0.414300
     16 CAP          9.3420   -35.3470   113.7160 c3         1 K7X       0.085600
     17 CAQ         10.7040   -34.7980   113.1970 c          1 K7X       0.594100
     18 OAR         11.6680   -35.5440   113.0330 o          1 K7X      -0.580100
     19 NAS         10.8250   -33.3950   112.9920 n          1 K7X      -0.242400
     20 CBA         12.1790   -32.8130   112.8180 c3         1 K7X       0.109000
     21 CBB         12.5380   -32.5910   111.3380 c3         1 K7X      -0.112100
     22 CAT          9.7140   -32.4800   113.0050 ca         1 K7X      -0.062000
     23 CAY          8.6030   -32.6930   112.1650 ca         1 K7X      -0.111000
     24 CAX          7.4550   -31.8840   112.2680 ca         1 K7X      -0.068300
     25 CAZ          6.2770   -32.1070   111.3320 c3         1 K7X      -0.048800
     26 CAW          7.4020   -30.8810   113.2520 ca         1 K7X      -0.106000
     27 CAV          8.4820   -30.6990   114.1310 ca         1 K7X      -0.101000
     28 CAU          9.6250   -31.5080   114.0200 ca         1 K7X      -0.115000
     29 H1           8.5900   -36.3280   109.3440 hc         1 K7X       0.067033
     30 H2           9.6810   -37.4650   108.5460 hc         1 K7X       0.067033
     31 H3           7.9740   -37.8870   108.7890 hc         1 K7X       0.067033
     32 H4           8.5490   -35.0640   113.0170 h1         1 K7X       0.089200
     33 H5           9.1370   -34.8320   114.6620 h1         1 K7X       0.089200
     34 H6          12.2260   -31.8470   113.3350 h1         1 K7X       0.059200
     35 H7          12.9350   -33.4580   113.2850 h1         1 K7X       0.059200
     36 H8          13.5380   -32.1510   111.2500 hc         1 K7X       0.042700
     37 H9          12.5290   -33.5410   110.7910 hc         1 K7X       0.042700
     38 H10         11.8190   -31.9110   110.8650 hc         1 K7X       0.042700
     39 H11          8.6410   -33.4710   111.4050 ha         1 K7X       0.125000
     40 H12          5.6080   -32.8820   111.7250 hc         1 K7X       0.046033
     41 H13          5.6890   -31.1910   111.2020 hc         1 K7X       0.046033
     42 H14          6.6120   -32.4260   110.3380 hc         1 K7X       0.046033
     43 H15          6.5180   -30.2540   113.3480 ha         1 K7X       0.117000
     44 H16          8.4270   -29.9390   114.9080 ha         1 K7X       0.120000
     45 H17         10.4380   -31.3790   114.7310 ha         1 K7X       0.125000
@<TRIPOS>BOND
     1     1     2 3   
     2     2     3 1   
     3     3     4 ar  
     4     3    14 ar  
     5     4     5 1   
     6     4     9 ar  
     7     5     6 1   
     8     5     7 1   
     9     5     8 1   
    10     9    10 1   
    11     9    11 ar  
    12    11    12 1   
    13    11    13 ar  
    14    12    29 1   
    15    12    30 1   
    16    12    31 1   
    17    13    14 ar  
    18    14    15 1   
    19    15    16 1   
    20    16    17 1   
    21    16    32 1   
    22    16    33 1   
    23    17    18 2   
    24    17    19 1   
    25    19    20 1   
    26    19    22 1   
    27    20    21 1   
    28    20    34 1   
    29    20    35 1   
    30    21    36 1   
    31    21    37 1   
    32    21    38 1   
    33    22    23 ar  
    34    22    28 ar  
    35    23    24 ar  
    36    23    39 1   
    37    24    25 1   
    38    24    26 ar  
    39    25    40 1   
    40    25    41 1   
    41    25    42 1   
    42    26    27 ar  
    43    26    43 1   
    44    27    28 ar  
    45    27    44 1   
    46    28    45 1   
@<TRIPOS>SUBSTRUCTURE
     1 K7X         1 TEMP              0 ****  ****    0 ROOT
