@<TRIPOS>MOLECULE
K7Z
   37    37     1     0     0
SMALL
No Charge or Current Charge


@<TRIPOS>ATOM
      1 C13         13.2060    -3.1590     3.1920 c          1 K7Z       0.716000
      2 C10          6.6030     2.8340    -1.2510 ca         1 K7Z       0.120000
      3 C9           6.0910     1.5320    -1.3660 ca         1 K7Z      -0.111500
      4 C8           6.6460     0.4860    -0.6070 ca         1 K7Z      -0.077500
      5 C7           7.7220     0.7430     0.2690 ca         1 K7Z      -0.096000
      6 C6           8.0630    -2.1300     0.4050 c3         1 K7Z       0.074600
      7 C11          7.6690     3.0960    -0.3760 ca         1 K7Z      -0.111500
      8 N           11.0930    -2.8080     1.8830 ns         1 K7Z      -0.439900
      9 C           12.5600    -0.5190     0.3120 c3         1 K7Z      -0.081100
     10 O           10.8520    -3.3600    -0.3220 o          1 K7Z      -0.673100
     11 C1          12.9080    -1.0450     1.7240 c3         1 K7Z      -0.056700
     12 O1          12.5200    -3.2790     4.2000 o          1 K7Z      -0.725000
     13 C2          12.2970    -0.1370     2.8200 c3         1 K7Z      -0.081100
     14 O2          14.3460    -3.5940     3.1070 o          1 K7Z      -0.725000
     15 C3          12.5560    -2.5550     1.9050 c3         1 K7Z      -0.042300
     16 C5           8.8480    -3.3030     1.0240 c3         1 K7Z      -0.158400
     17 C12          8.2250     2.0520     0.3840 ca         1 K7Z      -0.077500
     18 S            8.4730    -0.5450     1.2650 ss         1 K7Z      -0.203000
     19 H2           6.2270    -0.5120    -0.7040 ha         1 K7Z       0.142500
     20 H3           6.9860    -2.3190     0.5020 h1         1 K7Z       0.065700
     21 H4           8.3100    -2.0380    -0.6600 h1         1 K7Z       0.065700
     22 H5           8.0630     4.1050    -0.2860 ha         1 K7Z       0.125000
     23 H6          10.5870    -2.7060     2.7550 hn         1 K7Z       0.330500
     24 H7          12.9370     0.5020     0.1770 hc         1 K7Z       0.022367
     25 H8          13.0140    -1.1510    -0.4610 hc         1 K7Z       0.022367
     26 H9          11.4750    -0.5020     0.1510 hc         1 K7Z       0.022367
     27 H10         13.9990    -0.9650     1.8190 hc         1 K7Z       0.063700
     28 H12         12.6180    -0.4540     3.8190 hc         1 K7Z       0.022367
     29 H13         12.6190     0.9020     2.6810 hc         1 K7Z       0.022367
     30 H14         11.2010    -0.1580     2.7860 hc         1 K7Z       0.022367
     31 H15         13.0040    -3.1050     1.0670 h1         1 K7Z       0.062700
     32 H16          8.5050    -4.2280     0.5470 hc         1 K7Z       0.060700
     33 H17          8.6340    -3.3370     2.0990 hc         1 K7Z       0.060700
     34 H18          9.0520     2.2590     1.0610 ha         1 K7Z       0.142500
     35 Cl           5.9060     4.1400    -2.2010 cl         1 K7Z      -0.224000
     36 C4          10.3490    -3.1500     0.7750 c          1 K7Z       0.595100
     37 H1           5.2620     1.3340    -2.0410 ha         1 K7Z       0.125000
@<TRIPOS>BOND
     1     1    12 1   
     2     1    14 1   
     3     1    15 1   
     4     2     3 ar  
     5     2     7 ar  
     6     2    35 1   
     7     3     4 ar  
     8     3    37 1   
     9     4     5 ar  
    10     4    19 1   
    11     5    17 ar  
    12     5    18 1   
    13     6    16 1   
    14     6    18 1   
    15     6    20 1   
    16     6    21 1   
    17     7    17 ar  
    18     7    22 1   
    19     8    15 1   
    20     8    23 1   
    21     8    36 1   
    22     9    11 1   
    23     9    24 1   
    24     9    25 1   
    25     9    26 1   
    26    10    36 2   
    27    11    13 1   
    28    11    15 1   
    29    11    27 1   
    30    13    28 1   
    31    13    29 1   
    32    13    30 1   
    33    15    31 1   
    34    16    32 1   
    35    16    33 1   
    36    16    36 1   
    37    17    34 1   
@<TRIPOS>SUBSTRUCTURE
     1 K7Z         1 TEMP              0 ****  ****    0 ROOT
