@<TRIPOS>MOLECULE
K7Z
   37    37     1     0     0
SMALL
bcc


@<TRIPOS>ATOM
      1 C13         13.3040    -3.2670     2.3270 c          1 K7Z       0.926600
      2 C10          7.3120     2.3200    -1.7420 ca         1 K7Z       0.028400
      3 C9           8.0040     1.1280    -1.9000 ca         1 K7Z      -0.129500
      4 C8           8.2260     0.3200    -0.7960 ca         1 K7Z      -0.095500
      5 C7           7.7340     0.6840     0.4560 ca         1 K7Z       0.030900
      6 C6           7.5510    -1.9680     1.4270 c3         1 K7Z       0.026700
      7 C11          6.8300     2.7070    -0.5030 ca         1 K7Z      -0.129500
      8 N           10.9850    -2.5970     1.8800 ns         1 K7Z      -0.506900
      9 C           12.0160    -0.1710     0.3300 c3         1 K7Z      -0.081100
     10 O            9.9270    -2.7350    -0.1190 o          1 K7Z      -0.673100
     11 C1          12.7940    -0.9770     1.3630 c3         1 K7Z      -0.056700
     12 O1          12.8390    -3.7030     3.3980 o          1 K7Z      -0.830300
     13 C2          12.7120    -0.2990     2.7280 c3         1 K7Z      -0.081100
     14 O2          14.4670    -3.3860     1.9020 o          1 K7Z      -0.830300
     15 C3          12.3470    -2.4520     1.4170 c3         1 K7Z      -0.042300
     16 C5           8.6040    -2.9770     1.8530 c3         1 K7Z      -0.158400
     17 C12          7.0350     1.8790     0.5920 ca         1 K7Z      -0.095500
     18 S            8.0490    -0.2740     1.9070 ss         1 K7Z      -0.282000
     19 H2           8.7910    -0.5950    -0.9170 ha         1 K7Z       0.160500
     20 H3           6.5960    -2.1920     1.9010 h1         1 K7Z       0.065700
     21 H4           7.4020    -1.9970     0.3490 h1         1 K7Z       0.065700
     22 H5           6.2870     3.6350    -0.3870 ha         1 K7Z       0.143000
     23 H6          10.8960    -2.7570     2.8730 hn         1 K7Z       0.330500
     24 H7          12.4270     0.8370     0.2440 hc         1 K7Z       0.022367
     25 H8          12.0570    -0.6320    -0.6580 hc         1 K7Z       0.022367
     26 H9          10.9660    -0.0700     0.6090 hc         1 K7Z       0.022367
     27 H10         13.8420    -0.9990     1.0520 hc         1 K7Z       0.063700
     28 H12         13.3030    -0.8150     3.4860 hc         1 K7Z       0.022367
     29 H13         13.0810     0.7260     2.6690 hc         1 K7Z       0.022367
     30 H14         11.6790    -0.2530     3.0820 hc         1 K7Z       0.022367
     31 H15         12.4060    -2.8560     0.4030 h1         1 K7Z       0.062700
     32 H16          8.2340    -3.9780     1.6140 hc         1 K7Z       0.060700
     33 H17          8.7430    -2.9450     2.9360 hc         1 K7Z       0.060700
     34 H18          6.6390     2.1700     1.5560 ha         1 K7Z       0.160500
     35 CL           7.0500     3.3410    -3.1170 cl         1 K7Z      -0.132400
     36 C4           9.9080    -2.7590     1.1080 c          1 K7Z       0.662100
     37 H1           8.3830     0.8350    -2.8690 ha         1 K7Z       0.143000
@<TRIPOS>BOND
     1     1    12 1   
     2     1    14 1   
     3     1    15 1   
     4     2     3 ar  
     5     2     7 ar  
     6     2    35 1   
     7     3     4 ar  
     8     3    37 1   
     9     4     5 ar  
    10     4    19 1   
    11     5    17 ar  
    12     5    18 1   
    13     6    16 1   
    14     6    18 1   
    15     6    20 1   
    16     6    21 1   
    17     7    17 ar  
    18     7    22 1   
    19     8    15 1   
    20     8    23 1   
    21     8    36 1   
    22     9    11 1   
    23     9    24 1   
    24     9    25 1   
    25     9    26 1   
    26    10    36 2   
    27    11    13 1   
    28    11    15 1   
    29    11    27 1   
    30    13    28 1   
    31    13    29 1   
    32    13    30 1   
    33    15    31 1   
    34    16    32 1   
    35    16    33 1   
    36    16    36 1   
    37    17    34 1   
@<TRIPOS>SUBSTRUCTURE
     1 K7Z         1 TEMP              0 ****  ****    0 ROOT
