@<TRIPOS>MOLECULE
K80
   32    33     1     0     0
SMALL
abcg2


@<TRIPOS>ATOM
      1 CAJ          1.7260     0.9440     0.9430 ca         1 K80      -0.097500
      2 CAK          3.1010     0.8420     0.7670 ca         1 K80      -0.110500
      3 CAL          3.6460    -0.1220    -0.0750 ca         1 K80      -0.071300
      4 CAO          5.1310    -0.2650    -0.2380 c3         1 K80      -0.047800
      5 CAM          2.7670    -0.9740    -0.7460 ca         1 K80      -0.110500
      6 CAN          1.3960    -0.8710    -0.5720 ca         1 K80      -0.097500
      7 CAI          0.8530     0.0910     0.2800 ca         1 K80      -0.102300
      8 CAC         -0.6340     0.2230     0.4710 c5         1 K80       0.233800
      9 NAD         -1.3230    -1.0340     0.7550 n7         1 K80      -0.873400
     10 CAE         -2.4320    -1.2250    -0.1850 c5         1 K80       0.185500
     11 CAF         -3.5810    -1.9940     0.4390 c3         1 K80      -0.073100
     12 CAA         -2.7580     0.1920    -0.6340 c5         1 K80       0.132300
     13 OAH         -3.4930     0.8620     0.3610 oh         1 K80      -0.638000
     14 CAB         -1.3540     0.7800    -0.7680 c5         1 K80       0.104300
     15 OAG         -1.3000     2.1820    -0.7710 oh         1 K80      -0.647000
     16 H1           1.3280     1.6990     1.6110 ha         1 K80       0.111500
     17 H2           3.7570     1.5200     1.2990 ha         1 K80       0.111500
     18 H3           5.5150    -1.0800     0.3800 hc         1 K80       0.042700
     19 H4           5.4020    -0.4910    -1.2690 hc         1 K80       0.042700
     20 H5           5.6560     0.6420     0.0590 hc         1 K80       0.042700
     21 H6           3.1630    -1.7300    -1.4140 ha         1 K80       0.111500
     22 H7           0.7450    -1.5480    -1.1130 ha         1 K80       0.111500
     23 H8          -0.7970     0.9330     1.2940 h1         1 K80       0.088700
     24 H9          -0.6980    -1.8270     0.7680 hn         1 K80       0.426000
     25 H11         -2.1100    -1.7670    -1.0880 h1         1 K80       0.015700
     26 H12         -3.9410    -1.5000     1.3400 hc         1 K80       0.043367
     27 H13         -4.4130    -2.0900    -0.2610 hc         1 K80       0.043367
     28 H14         -3.2630    -3.0010     0.7090 hc         1 K80       0.043367
     29 H15         -3.2970     0.1880    -1.5920 h1         1 K80       0.040700
     30 H16         -3.3360     1.8060     0.2490 ho         1 K80       0.451000
     31 H17         -0.8960     0.3620    -1.6750 h1         1 K80       0.040700
     32 H18         -1.5640     2.4970    -1.6420 ho         1 K80       0.446000
@<TRIPOS>BOND
     1     1     2 ar  
     2     1     7 ar  
     3     1    16 1   
     4     2     3 ar  
     5     2    17 1   
     6     3     4 1   
     7     3     5 ar  
     8     4    18 1   
     9     4    19 1   
    10     4    20 1   
    11     5     6 ar  
    12     5    21 1   
    13     6     7 ar  
    14     6    22 1   
    15     7     8 1   
    16     8     9 1   
    17     8    14 1   
    18     8    23 1   
    19     9    10 1   
    20     9    24 1   
    21    10    11 1   
    22    10    12 1   
    23    10    25 1   
    24    11    26 1   
    25    11    27 1   
    26    11    28 1   
    27    12    13 1   
    28    12    14 1   
    29    12    29 1   
    30    13    30 1   
    31    14    15 1   
    32    14    31 1   
    33    15    32 1   
@<TRIPOS>SUBSTRUCTURE
     1 K80         1 TEMP              0 ****  ****    0 ROOT
