@<TRIPOS>MOLECULE
K80
   32    33     1     0     0
SMALL
No Charge or Current Charge


@<TRIPOS>ATOM
      1 CAJ          1.7220     0.9420     1.0250 ca         1 K80      -0.097500
      2 CAK          3.1080     0.8240     0.8200 ca         1 K80      -0.110500
      3 CAL          3.6140    -0.1290    -0.0820 ca         1 K80      -0.071300
      4 CAO          5.1140    -0.2590    -0.3020 c3         1 K80      -0.047800
      5 CAM          2.7190    -0.9650    -0.7720 ca         1 K80      -0.110500
      6 CAN          1.3340    -0.8470    -0.5670 ca         1 K80      -0.097500
      7 CAI          0.8180     0.1110     0.3340 ca         1 K80      -0.102300
      8 CAC         -0.6880     0.2550     0.5770 c5         1 K80       0.233800
      9 NAD         -1.3480    -1.0450     0.8920 n7         1 K80      -0.873400
     10 CAE         -2.4060    -1.2260    -0.1380 c5         1 K80       0.185500
     11 CAF         -3.5880    -2.0670     0.3890 c3         1 K80      -0.073100
     12 CAA         -2.7750     0.2190    -0.6270 c5         1 K80       0.132300
     13 OAH         -3.5580     0.9820     0.3080 oh         1 K80      -0.638000
     14 CAB         -1.3330     0.7880    -0.7580 c5         1 K80       0.104300
     15 OAG         -1.3280     2.2230    -0.8750 oh         1 K80      -0.647000
     16 H1           1.3510     1.6870     1.7260 ha         1 K80       0.111500
     17 H2           3.7880     1.4750     1.3640 ha         1 K80       0.111500
     18 H3           5.5500    -0.9790     0.4010 hc         1 K80       0.042700
     19 H4           5.3410    -0.6030    -1.3180 hc         1 K80       0.042700
     20 H5           5.6240     0.7010    -0.1580 hc         1 K80       0.042700
     21 H6           3.0960    -1.7100    -1.4690 ha         1 K80       0.111500
     22 H7           0.6610    -1.5040    -1.1130 ha         1 K80       0.111500
     23 H8          -0.8780     0.9690     1.3920 h1         1 K80       0.088700
     24 H9          -0.6600    -1.8030     0.8110 hn         1 K80       0.426000
     25 H11         -1.9740    -1.7760    -0.9860 h1         1 K80       0.015700
     26 H12         -4.0470    -1.6050     1.2710 hc         1 K80       0.043367
     27 H13         -4.3630    -2.1720    -0.3780 hc         1 K80       0.043367
     28 H14         -3.2580    -3.0740     0.6710 hc         1 K80       0.043367
     29 H15         -3.2800     0.1860    -1.6020 h1         1 K80       0.040700
     30 H16         -3.1360     1.8710     0.3130 ho         1 K80       0.451000
     31 H17         -0.8420     0.3400    -1.6330 h1         1 K80       0.040700
     32 H18         -1.3810     2.4370    -1.8340 ho         1 K80       0.446000
@<TRIPOS>BOND
     1     1     2 ar  
     2     1     7 ar  
     3     1    16 1   
     4     2     3 ar  
     5     2    17 1   
     6     3     4 1   
     7     3     5 ar  
     8     4    18 1   
     9     4    19 1   
    10     4    20 1   
    11     5     6 ar  
    12     5    21 1   
    13     6     7 ar  
    14     6    22 1   
    15     7     8 1   
    16     8     9 1   
    17     8    14 1   
    18     8    23 1   
    19     9    10 1   
    20     9    24 1   
    21    10    11 1   
    22    10    12 1   
    23    10    25 1   
    24    11    26 1   
    25    11    27 1   
    26    11    28 1   
    27    12    13 1   
    28    12    14 1   
    29    12    29 1   
    30    13    30 1   
    31    14    15 1   
    32    14    31 1   
    33    15    32 1   
@<TRIPOS>SUBSTRUCTURE
     1 K80         1 TEMP              0 ****  ****    0 ROOT
