@<TRIPOS>MOLECULE
K81
   61    64     1     0     0
SMALL
abcg2


@<TRIPOS>ATOM
      1 C1           4.1800     0.7320     0.0250 ca         1 K81       0.658900
      2 C3           4.5110    -1.5120    -0.2950 ca         1 K81       0.636300
      3 C11         -1.2820    -1.5210     2.6160 ca         1 K81      -0.111000
      4 C12         -0.1440    -2.1170     3.1370 ca         1 K81      -0.093000
      5 C13          1.1230    -1.9370     2.5910 ca         1 K81      -0.069300
      6 C14          2.3080    -2.6070     3.2270 c3         1 K81      -0.045800
      7 C16          6.0680     2.1950    -0.4820 c6         1 K81       0.180300
      8 C17          6.2790     3.4850    -1.2480 c6         1 K81       0.142600
      9 C19          4.3280     4.4000    -0.4180 c6         1 K81       0.142600
     10 C20          4.0070     3.1500     0.3830 c6         1 K81       0.180300
     11 C21         -3.5510    -0.3210     0.9800 c          1 K81       0.616700
     12 C22         -4.4520     0.6090     0.2230 ca         1 K81      -0.120600
     13 C24         -4.1740     1.9530     0.0300 ca         1 K81      -0.121000
     14 C25         -5.0990     2.7340    -0.6530 ca         1 K81       0.336900
     15 C27         -6.4900     0.9680    -0.9410 ca         1 K81       0.230300
     16 C28         -5.6530     0.1030    -0.2650 ca         1 K81      -0.061000
     17 C29         -7.8050     0.5170    -1.5200 c3         1 K81       0.270700
     18 N2           4.9310    -0.2760    -0.4310 nb         1 K81      -0.836000
     19 C4           3.3060    -1.8640     0.3120 ca         1 K81      -0.226000
     20 C5           2.5320    -0.8290     0.8140 cp         1 K81       0.063000
     21 C6           2.9660     0.4860     0.6810 ca         1 K81      -0.270000
     22 N7           4.6540     1.9950    -0.2070 nh         1 K81      -0.773300
     23 C8           1.2320    -1.1020     1.4710 cp         1 K81      -0.019000
     24 C9           0.0980    -0.4920     0.9480 ca         1 K81      -0.143000
     25 C10         -1.1630    -0.6970     1.5000 ca         1 K81      -0.038000
     26 N15         -2.2360    -0.0190     0.9050 ns         1 K81      -0.138000
     27 O18          5.7130     4.5890    -0.5780 os         1 K81      -0.443000
     28 O23         -4.0160    -1.2650     1.5900 o          1 K81      -0.562100
     29 N26         -6.2310     2.2540    -1.1350 nb         1 K81      -0.614000
     30 F30         -8.0150    -0.7890    -1.3400 f          1 K81      -0.103333
     31 O31          5.2680    -2.5080    -0.7640 os         1 K81      -0.453300
     32 C32          6.4920    -2.1860    -1.4140 c3         1 K81       0.172600
     33 F33         -8.8270     1.1690    -0.9580 f          1 K81      -0.103333
     34 C34          7.1350    -3.4710    -1.8660 c3         1 K81       0.157600
     35 O35          6.3300    -4.0790    -2.8480 oh         1 K81      -0.648000
     36 F36         -7.8610     0.7550    -2.8330 f          1 K81      -0.103333
     37 H1          -2.2330    -1.6920     3.0920 ha         1 K81       0.144000
     38 H2          -0.2510    -2.7410     4.0160 ha         1 K81       0.117000
     39 H3           2.6110    -3.5000     2.6780 hc         1 K81       0.046033
     40 H4           3.1760    -1.9500     3.2710 hc         1 K81       0.046033
     41 H5           2.0700    -2.9200     4.2420 hc         1 K81       0.046033
     42 H6           6.4470     1.3640    -1.0720 h1         1 K81       0.055700
     43 H7           6.6410     2.2210     0.4550 h1         1 K81       0.055700
     44 H8           7.3480     3.6740    -1.3530 h1         1 K81       0.053950
     45 H9           5.8510     3.3870    -2.2550 h1         1 K81       0.053950
     46 H10          3.8350     4.3350    -1.3980 h1         1 K81       0.053950
     47 H11          3.9300     5.2730     0.1010 h1         1 K81       0.053950
     48 H12          4.3090     3.2810     1.4310 h1         1 K81       0.055700
     49 H13          2.9240     3.0300     0.3640 h1         1 K81       0.055700
     50 H14         -3.2760     2.4200     0.4130 ha         1 K81       0.131000
     51 H15         -4.9090     3.7880    -0.8090 h4         1 K81       0.034100
     52 H16         -5.9060    -0.9370    -0.1190 ha         1 K81       0.165000
     53 H17          2.9990    -2.8990     0.3790 ha         1 K81       0.144000
     54 H18          2.3750     1.2820     1.1080 ha         1 K81       0.124000
     55 H19          0.2000     0.1480     0.0790 ha         1 K81       0.115000
     56 H20         -1.9700     0.7010     0.2490 hn         1 K81       0.154000
     57 H21          6.3150    -1.5220    -2.2640 h1         1 K81       0.053700
     58 H22          7.1700    -1.6690    -0.7300 h1         1 K81       0.053700
     59 H23          8.1290    -3.2110    -2.2520 h1         1 K81       0.027700
     60 H24          7.2940    -4.1270    -1.0000 h1         1 K81       0.027700
     61 H25          6.7550    -4.8970    -3.1180 ho         1 K81       0.443000
@<TRIPOS>BOND
     1     1    18 ar  
     2     1    21 ar  
     3     1    22 1   
     4     2    18 ar  
     5     2    19 ar  
     6     2    31 1   
     7     3     4 ar  
     8     3    25 ar  
     9     3    37 1   
    10     4     5 ar  
    11     4    38 1   
    12     5     6 1   
    13     5    23 ar  
    14     6    39 1   
    15     6    40 1   
    16     6    41 1   
    17     7     8 1   
    18     7    22 1   
    19     7    42 1   
    20     7    43 1   
    21     8    27 1   
    22     8    44 1   
    23     8    45 1   
    24     9    10 1   
    25     9    27 1   
    26     9    46 1   
    27     9    47 1   
    28    10    22 1   
    29    10    48 1   
    30    10    49 1   
    31    11    12 1   
    32    11    26 1   
    33    11    28 2   
    34    12    13 ar  
    35    12    16 ar  
    36    13    14 ar  
    37    13    50 1   
    38    14    29 ar  
    39    14    51 1   
    40    15    16 ar  
    41    15    17 1   
    42    15    29 ar  
    43    16    52 1   
    44    17    30 1   
    45    17    33 1   
    46    17    36 1   
    47    19    20 ar  
    48    19    53 1   
    49    20    21 ar  
    50    20    23 1   
    51    21    54 1   
    52    23    24 ar  
    53    24    25 ar  
    54    24    55 1   
    55    25    26 1   
    56    26    56 1   
    57    31    32 1   
    58    32    34 1   
    59    32    57 1   
    60    32    58 1   
    61    34    35 1   
    62    34    59 1   
    63    34    60 1   
    64    35    61 1   
@<TRIPOS>SUBSTRUCTURE
     1 K81         1 TEMP              0 ****  ****    0 ROOT
