@<TRIPOS>MOLECULE
K81
   61    64     1     0     0
SMALL
No Charge or Current Charge


@<TRIPOS>ATOM
      1 C1           4.1920     0.7490     0.0030 ca         1 K81       0.658900
      2 C3           4.6810    -1.4770    -0.2940 ca         1 K81       0.636300
      3 C11         -1.3310    -1.8860     2.3640 ca         1 K81      -0.111000
      4 C12         -0.1800    -2.4790     2.9090 ca         1 K81      -0.093000
      5 C13          1.1000    -2.1750     2.4070 ca         1 K81      -0.069300
      6 C14          2.3070    -2.8240     3.0780 c3         1 K81      -0.045800
      7 C16          6.0860     2.4330     0.0460 c6         1 K81       0.180300
      8 C17          6.4930     3.7600    -0.6600 c6         1 K81       0.142600
      9 C19          4.2180     4.5180    -0.7540 c6         1 K81       0.142600
     10 C20          3.6960     3.2290    -0.0520 c6         1 K81       0.180300
     11 C21         -3.7020    -0.3610     0.9480 c          1 K81       0.616700
     12 C22         -4.5650     0.4990     0.0450 ca         1 K81      -0.120600
     13 C24         -4.0370     1.3010    -0.9970 ca         1 K81      -0.121000
     14 C25         -4.9060     2.0700    -1.7890 ca         1 K81       0.336900
     15 C27         -6.7750     1.3240    -0.6170 ca         1 K81       0.230300
     16 C28         -5.9680     0.5260     0.2210 ca         1 K81      -0.061000
     17 C29         -8.3030     1.3420    -0.4120 c3         1 K81       0.270700
     18 N2           5.0460    -0.1890    -0.4200 nb         1 K81      -0.836000
     19 C4           3.4610    -1.8690     0.2640 ca         1 K81      -0.226000
     20 C5           2.5530    -0.9010     0.7290 cp         1 K81       0.063000
     21 C6           2.9460     0.4410     0.5740 ca         1 K81      -0.270000
     22 N7           4.6420     2.0710    -0.1800 nh         1 K81      -0.773300
     23 C8           1.2300    -1.2620     1.3230 cp         1 K81      -0.019000
     24 C9           0.0570    -0.6670     0.7980 ca         1 K81      -0.143000
     25 C10         -1.2210    -0.9660     1.3010 ca         1 K81      -0.038000
     26 N15         -2.3350    -0.3180     0.6950 ns         1 K81      -0.138000
     27 O18          5.5680     4.8220    -0.3380 os         1 K81      -0.443000
     28 O23         -4.2040    -1.0400     1.8380 o          1 K81      -0.562100
     29 N26         -6.2460     2.0870    -1.6110 nb         1 K81      -0.614000
     30 F30         -8.8370     0.1070    -0.5550 f          1 K81      -0.103333
     31 O31          5.5290    -2.4690    -0.7240 os         1 K81      -0.453300
     32 C32          6.7980    -2.1520    -1.3370 c3         1 K81       0.172600
     33 F33         -8.6320     1.7670     0.8310 f          1 K81      -0.103333
     34 C34          7.5220    -3.4700    -1.7140 c3         1 K81       0.157600
     35 O35          6.8180    -4.1850    -2.7470 oh         1 K81      -0.648000
     36 F36         -8.9550     2.1500    -1.2830 f          1 K81      -0.103333
     37 H1          -2.2930    -2.1550     2.7880 ha         1 K81       0.144000
     38 H2          -0.2880    -3.1780     3.7360 ha         1 K81       0.117000
     39 H3           2.6220    -3.7240     2.5370 hc         1 K81       0.046033
     40 H4           3.1610    -2.1380     3.1250 hc         1 K81       0.046033
     41 H5           2.0820    -3.1220     4.1090 hc         1 K81       0.046033
     42 H6           6.7610     1.6470    -0.3220 h1         1 K81       0.055700
     43 H7           6.2760     2.5370     1.1250 h1         1 K81       0.055700
     44 H8           7.5040     4.0540    -0.3440 h1         1 K81       0.053950
     45 H9           6.5080     3.6120    -1.7490 h1         1 K81       0.053950
     46 H10          4.2000     4.3800    -1.8450 h1         1 K81       0.053950
     47 H11          3.5650     5.3660    -0.5090 h1         1 K81       0.053950
     48 H12          3.5210     3.4540     1.0110 h1         1 K81       0.055700
     49 H13          2.7230     2.9790    -0.4990 h1         1 K81       0.055700
     50 H14         -2.9730     1.3470    -1.2090 ha         1 K81       0.131000
     51 H15         -4.5160     2.6920    -2.5940 h4         1 K81       0.034100
     52 H16         -6.4380    -0.0670     1.0020 ha         1 K81       0.165000
     53 H17          3.2220    -2.9250     0.3210 ha         1 K81       0.144000
     54 H18          2.2860     1.2270     0.9190 ha         1 K81       0.124000
     55 H19          0.1510     0.0340    -0.0280 ha         1 K81       0.115000
     56 H20         -2.0780     0.2910    -0.0690 hn         1 K81       0.154000
     57 H21          6.6590    -1.5440    -2.2400 h1         1 K81       0.053700
     58 H22          7.4320    -1.5890    -0.6390 h1         1 K81       0.053700
     59 H23          8.5370    -3.2240    -2.0550 h1         1 K81       0.027700
     60 H24          7.6200    -4.0930    -0.8150 h1         1 K81       0.027700
     61 H25          7.3050    -5.0250    -2.8970 ho         1 K81       0.443000
@<TRIPOS>BOND
     1     1    18 ar  
     2     1    21 ar  
     3     1    22 1   
     4     2    18 ar  
     5     2    19 ar  
     6     2    31 1   
     7     3     4 ar  
     8     3    25 ar  
     9     3    37 1   
    10     4     5 ar  
    11     4    38 1   
    12     5     6 1   
    13     5    23 ar  
    14     6    39 1   
    15     6    40 1   
    16     6    41 1   
    17     7     8 1   
    18     7    22 1   
    19     7    42 1   
    20     7    43 1   
    21     8    27 1   
    22     8    44 1   
    23     8    45 1   
    24     9    10 1   
    25     9    27 1   
    26     9    46 1   
    27     9    47 1   
    28    10    22 1   
    29    10    48 1   
    30    10    49 1   
    31    11    12 1   
    32    11    26 1   
    33    11    28 2   
    34    12    13 ar  
    35    12    16 ar  
    36    13    14 ar  
    37    13    50 1   
    38    14    29 ar  
    39    14    51 1   
    40    15    16 ar  
    41    15    17 1   
    42    15    29 ar  
    43    16    52 1   
    44    17    30 1   
    45    17    33 1   
    46    17    36 1   
    47    19    20 ar  
    48    19    53 1   
    49    20    21 ar  
    50    20    23 1   
    51    21    54 1   
    52    23    24 ar  
    53    24    25 ar  
    54    24    55 1   
    55    25    26 1   
    56    26    56 1   
    57    31    32 1   
    58    32    34 1   
    59    32    57 1   
    60    32    58 1   
    61    34    35 1   
    62    34    59 1   
    63    34    60 1   
    64    35    61 1   
@<TRIPOS>SUBSTRUCTURE
     1 K81         1 TEMP              0 ****  ****    0 ROOT
