@<TRIPOS>MOLECULE
K82
   27    27     1     0     0
SMALL
No Charge or Current Charge


@<TRIPOS>ATOM
      1 Cl          -0.0510    -2.5400    -0.1870 cl         1 K82      -0.190000
      2 C4           0.5190    -0.8820     0.0200 ca         1 K82       0.074000
      3 C5           1.9000    -0.6450     0.1280 ca         1 K82      -0.044000
      4 C6           2.3880     0.6660     0.2930 ca         1 K82      -0.121300
      5 C7           3.8840     0.9130     0.4150 c3         1 K82       0.205100
      6 N            4.5430     0.8320    -0.8990 n8         1 K82      -1.000200
      7 C8           1.4790     1.7390     0.3500 ca         1 K82      -0.071000
      8 C9           0.0960     1.5080     0.2420 ca         1 K82      -0.198000
      9 C3          -0.3950     0.1930     0.0760 ca         1 K82       0.156100
     10 O           -1.7470    -0.0770    -0.0330 os         1 K82      -0.332100
     11 C2          -2.7450     0.9560     0.0140 c3         1 K82       0.163600
     12 C1          -4.1210     0.2810    -0.1380 c3         1 K82      -0.081400
     13 C           -5.2910     1.2850    -0.1040 c3         1 K82      -0.090100
     14 H1           2.5930    -1.4810     0.0810 ha         1 K82       0.147000
     15 H2           4.0670     1.9090     0.8440 h1         1 K82       0.034200
     16 H3           4.3320     0.1650     1.0850 h1         1 K82       0.034200
     17 H4           4.1620     1.5720    -1.5010 hn         1 K82       0.397500
     18 H5           5.5310     1.0910    -0.7910 hn         1 K82       0.397500
     19 H7           1.8450     2.7570     0.4770 ha         1 K82       0.110000
     20 H8          -0.5760     2.3600     0.2900 ha         1 K82       0.119000
     21 H9          -2.7030     1.4920     0.9720 h1         1 K82       0.034200
     22 H10         -2.5970     1.6760    -0.8010 h1         1 K82       0.034200
     23 H11         -4.1490    -0.2700    -1.0860 hc         1 K82       0.057200
     24 H12         -4.2540    -0.4520     0.6670 hc         1 K82       0.057200
     25 H13         -5.3080     1.8300     0.8470 hc         1 K82       0.035700
     26 H14         -5.2020     2.0130    -0.9190 hc         1 K82       0.035700
     27 H15         -6.2480     0.7600    -0.2160 hc         1 K82       0.035700
@<TRIPOS>BOND
     1     1     2 1   
     2     2     3 ar  
     3     2     9 ar  
     4     3     4 ar  
     5     3    14 1   
     6     4     5 1   
     7     4     7 ar  
     8     5     6 1   
     9     5    15 1   
    10     5    16 1   
    11     6    17 1   
    12     6    18 1   
    13     7     8 ar  
    14     7    19 1   
    15     8     9 ar  
    16     8    20 1   
    17     9    10 1   
    18    10    11 1   
    19    11    12 1   
    20    11    21 1   
    21    11    22 1   
    22    12    13 1   
    23    12    23 1   
    24    12    24 1   
    25    13    25 1   
    26    13    26 1   
    27    13    27 1   
@<TRIPOS>SUBSTRUCTURE
     1 K82         1 TEMP              0 ****  ****    0 ROOT
