@<TRIPOS>MOLECULE
K82
   27    27     1     0     0
SMALL
bcc


@<TRIPOS>ATOM
      1 CL           0.0010    -2.3350    -0.5660 cl         1 K82      -0.098400
      2 C4           0.5300    -0.7330    -0.1710 ca         1 K82      -0.017600
      3 C5           1.8810    -0.4590    -0.0930 ca         1 K82      -0.062000
      4 C6           2.3250     0.8250     0.2170 ca         1 K82      -0.121300
      5 C7           3.7970     1.1300     0.3400 c3         1 K82       0.205100
      6 N            4.5900     0.3670    -0.6070 n8         1 K82      -0.889800
      7 C8           1.3710     1.8090     0.4340 ca         1 K82      -0.089000
      8 C9           0.0110     1.5370     0.3580 ca         1 K82      -0.216000
      9 C3          -0.4350     0.2550     0.0520 ca         1 K82       0.156100
     10 O           -1.7200    -0.1090    -0.0520 os         1 K82      -0.308900
     11 C2          -2.7270     0.8870     0.0730 c3         1 K82       0.140400
     12 C1          -4.0740     0.2310    -0.1450 c3         1 K82      -0.081400
     13 C           -5.1990     1.2530    -0.0530 c3         1 K82      -0.090100
     14 H1           2.6000    -1.2450    -0.2830 ha         1 K82       0.165000
     15 H2           3.9300     2.2170     0.2630 h1         1 K82       0.034200
     16 H3           4.1310     0.8590     1.3460 h1         1 K82       0.034200
     17 H4           4.4150     0.7030    -1.5460 hn         1 K82       0.342300
     18 H5           5.5720     0.5290    -0.4290 hn         1 K82       0.342300
     19 H7           1.6850     2.8190     0.6670 ha         1 K82       0.128000
     20 H8          -0.6930     2.3400     0.5300 ha         1 K82       0.137000
     21 H9          -2.6860     1.3460     1.0670 h1         1 K82       0.034200
     22 H10         -2.5650     1.6810    -0.6650 h1         1 K82       0.034200
     23 H11         -4.0890    -0.2510    -1.1260 hc         1 K82       0.057200
     24 H12         -4.2230    -0.5530     0.6010 hc         1 K82       0.057200
     25 H13         -5.2130     1.7440     0.9220 hc         1 K82       0.035700
     26 H14         -5.0940     2.0280    -0.8130 hc         1 K82       0.035700
     27 H15         -6.1690     0.7780    -0.1960 hc         1 K82       0.035700
@<TRIPOS>BOND
     1     1     2 1   
     2     2     3 ar  
     3     2     9 ar  
     4     3     4 ar  
     5     3    14 1   
     6     4     5 1   
     7     4     7 ar  
     8     5     6 1   
     9     5    15 1   
    10     5    16 1   
    11     6    17 1   
    12     6    18 1   
    13     7     8 ar  
    14     7    19 1   
    15     8     9 ar  
    16     8    20 1   
    17     9    10 1   
    18    10    11 1   
    19    11    12 1   
    20    11    21 1   
    21    11    22 1   
    22    12    13 1   
    23    12    23 1   
    24    12    24 1   
    25    13    25 1   
    26    13    26 1   
    27    13    27 1   
@<TRIPOS>SUBSTRUCTURE
     1 K82         1 TEMP              0 ****  ****    0 ROOT
