@<TRIPOS>MOLECULE
K83
   71    73     1     0     0
SMALL
No Charge or Current Charge


@<TRIPOS>ATOM
      1 C21         -1.7990     1.4480    -1.1220 c          1 K83       0.618700
      2 O22         -1.7300     1.8480     0.0330 o          1 K83      -0.594100
      3 C22         -2.5220     2.2310    -2.2020 ca         1 K83      -0.109600
      4 C27         -3.1390     3.4610    -1.8710 ca         1 K83      -0.094000
      5 C26         -3.8180     4.2120    -2.8430 ca         1 K83       0.133100
      6 C25         -3.8940     3.7490    -4.1640 ca         1 K83      -0.189000
      7 C24         -3.2890     2.5310    -4.5120 ca         1 K83      -0.078000
      8 C23         -2.6080     1.7760    -3.5420 ca         1 K83      -0.128000
      9 O27         -4.4050     5.3930    -2.4990 oh         1 K83      -0.529100
     10 N11          3.1760    -1.9410    -0.4350 n3         1 K83      -0.773500
     11 C12          3.6940    -2.3650    -1.7590 c3         1 K83       0.235800
     12 C13          5.1810    -2.8160    -1.8010 c3         1 K83      -0.081700
     13 C14          5.4570    -4.0130    -0.8580 c3         1 K83      -0.084600
     14 C15          5.6160    -3.1460    -3.2480 c3         1 K83      -0.084600
     15 C16          1.6910    -2.0420    -0.3260 c3         1 K83       0.188800
     16 C17          0.8530    -1.0940    -1.2480 c3         1 K83       0.120300
     17 O18          0.6570    -1.6770    -2.5580 oh         1 K83      -0.654000
     18 C19         -0.5190    -0.6850    -0.6280 c3         1 K83       0.080700
     19 N20         -1.2160     0.2610    -1.5130 ns         1 K83      -0.496900
     20 C32         -1.4540    -1.8690    -0.2610 c3         1 K83      -0.046100
     21 C33         -3.9400    -1.3260    -0.1090 ca         1 K83      -0.100000
     22 C34         -5.0630    -0.8840     0.6120 ca         1 K83      -0.104500
     23 C35         -4.9340    -0.5250     1.9640 ca         1 K83      -0.104000
     24 C36         -3.6820    -0.6080     2.5960 ca         1 K83      -0.104500
     25 C37         -2.5590    -1.0490     1.8750 ca         1 K83      -0.100000
     26 C38         -2.6820    -1.4110     0.5190 ca         1 K83      -0.083300
     27 S8           3.9110    -0.5330     0.2150 sy         1 K83       1.187600
     28 O9           3.9820     0.4570    -0.8640 o          1 K83      -0.542500
     29 O10          5.0990    -0.9900     0.9430 o          1 K83      -0.542500
     30 C5           2.7190     0.0410     1.4390 ca         1 K83      -0.342500
     31 C4           2.5830    -0.6530     2.6570 ca         1 K83       0.024500
     32 C6           1.9100     1.1640     1.1760 ca         1 K83       0.024500
     33 C3           1.6060    -0.2520     3.5820 ca         1 K83      -0.196500
     34 C7           0.9370     1.5600     2.1080 ca         1 K83      -0.196500
     35 C2           0.7710     0.8410     3.3090 ca         1 K83       0.196100
     36 O1          -0.1980     1.1610     4.2380 os         1 K83      -0.334100
     37 C1          -1.1940     2.1670     3.9840 c3         1 K83       0.145900
     38 H27         -3.0940     3.8390    -0.8520 ha         1 K83       0.150000
     39 H25         -4.4180     4.3240    -4.9240 ha         1 K83       0.114000
     40 H24         -3.3470     2.1700    -5.5370 ha         1 K83       0.114000
     41 H23         -2.1540     0.8380    -3.8500 ha         1 K83       0.114000
     42 HO27        -4.8270     5.7740    -3.2980 ho         1 K83       0.465000
     43 H12          3.0990    -3.2140    -2.1230 h1         1 K83       0.046200
     44 H12A         3.5510    -1.5570    -2.4900 h1         1 K83       0.046200
     45 H13          5.8080    -1.9800    -1.4730 hc         1 K83       0.079700
     46 H14          6.5160    -4.2980    -0.8940 hc         1 K83       0.033533
     47 H14A         5.2130    -3.7610     0.1810 hc         1 K83       0.033533
     48 H14B         4.8570    -4.8840    -1.1480 hc         1 K83       0.033533
     49 H15          5.4670    -2.2800    -3.9040 hc         1 K83       0.033533
     50 H15A         6.6780    -3.4170    -3.2820 hc         1 K83       0.033533
     51 H15B         5.0340    -3.9850    -3.6500 hc         1 K83       0.033533
     52 H16          1.3900    -3.0740    -0.5520 h1         1 K83       0.072700
     53 H16A         1.3730    -1.8960     0.7130 h1         1 K83       0.072700
     54 H17          1.4190    -0.1600    -1.3580 h1         1 K83       0.089700
     55 HO18         0.1440    -2.5060    -2.4450 ho         1 K83       0.438000
     56 H19         -0.2900    -0.1650     0.3120 h1         1 K83       0.099700
     57 HN20        -1.2850     0.0220    -2.4930 hn         1 K83       0.322500
     58 H32         -1.7560    -2.3950    -1.1750 hc         1 K83       0.047200
     59 H32A        -0.9080    -2.6020     0.3450 hc         1 K83       0.047200
     60 H33         -4.0470    -1.5950    -1.1580 ha         1 K83       0.107000
     61 H34         -6.0320    -0.8180     0.1210 ha         1 K83       0.113000
     62 H35         -5.8030    -0.1820     2.5220 ha         1 K83       0.113000
     63 H36         -3.5800    -0.3280     3.6420 ha         1 K83       0.113000
     64 H37         -1.5920    -1.1040     2.3700 ha         1 K83       0.107000
     65 H4           3.2090    -1.5180     2.8740 ha         1 K83       0.135000
     66 H6           2.0120     1.7220     0.2450 ha         1 K83       0.135000
     67 H3           1.4840    -0.8030     4.5110 ha         1 K83       0.128500
     68 H7           0.3140     2.4160     1.8720 ha         1 K83       0.128500
     69 H1          -0.7300     3.1510     3.8430 h1         1 K83       0.045367
     70 H1A         -1.7780     1.9200     3.0880 h1         1 K83       0.045367
     71 H1B         -1.8870     2.2370     4.8320 h1         1 K83       0.045367
@<TRIPOS>BOND
     1     1     2 2   
     2     1     3 1   
     3     1    19 1   
     4     3     4 ar  
     5     3     8 ar  
     6     4     5 ar  
     7     4    38 1   
     8     5     6 ar  
     9     5     9 1   
    10     6     7 ar  
    11     6    39 1   
    12     7     8 ar  
    13     7    40 1   
    14     8    41 1   
    15     9    42 1   
    16    10    11 1   
    17    10    15 1   
    18    10    27 1   
    19    11    12 1   
    20    11    43 1   
    21    11    44 1   
    22    12    13 1   
    23    12    14 1   
    24    12    45 1   
    25    13    46 1   
    26    13    47 1   
    27    13    48 1   
    28    14    49 1   
    29    14    50 1   
    30    14    51 1   
    31    15    16 1   
    32    15    52 1   
    33    15    53 1   
    34    16    17 1   
    35    16    18 1   
    36    16    54 1   
    37    17    55 1   
    38    18    19 1   
    39    18    20 1   
    40    18    56 1   
    41    19    57 1   
    42    20    26 1   
    43    20    58 1   
    44    20    59 1   
    45    21    22 ar  
    46    21    26 ar  
    47    21    60 1   
    48    22    23 ar  
    49    22    61 1   
    50    23    24 ar  
    51    23    62 1   
    52    24    25 ar  
    53    24    63 1   
    54    25    26 ar  
    55    25    64 1   
    56    27    28 2   
    57    27    29 2   
    58    27    30 1   
    59    30    31 ar  
    60    30    32 ar  
    61    31    33 ar  
    62    31    65 1   
    63    32    34 ar  
    64    32    66 1   
    65    33    35 ar  
    66    33    67 1   
    67    34    35 ar  
    68    34    68 1   
    69    35    36 1   
    70    36    37 1   
    71    37    69 1   
    72    37    70 1   
    73    37    71 1   
@<TRIPOS>SUBSTRUCTURE
     1 K83         1 TEMP              0 ****  ****    0 ROOT
