@<TRIPOS>MOLECULE
K83
   71    73     1     0     0
SMALL
bcc


@<TRIPOS>ATOM
      1 C21         -2.5620     0.4820     0.4350 c          1 K83       0.685700
      2 O22         -2.5670     0.2940     1.6430 o          1 K83      -0.594100
      3 C22         -3.4190     1.5430    -0.1830 ca         1 K83      -0.109600
      4 C27         -3.7240     2.6570     0.5890 ca         1 K83      -0.112000
      5 C26         -4.5220     3.6710     0.0700 ca         1 K83       0.133100
      6 C25         -5.0390     3.5540    -1.2180 ca         1 K83      -0.207000
      7 C24         -4.7470     2.4310    -1.9750 ca         1 K83      -0.096000
      8 C23         -3.9360     1.4250    -1.4720 ca         1 K83      -0.146000
      9 O27         -4.7640     4.7390     0.8550 oh         1 K83      -0.490100
     10 N11          2.8880    -1.6690     0.0420 n3         1 K83      -0.773500
     11 C12          3.6380    -1.8140    -1.2080 c3         1 K83       0.235800
     12 C13          4.6140    -2.9900    -1.2280 c3         1 K83      -0.081700
     13 C14          3.9170    -4.3120    -0.9350 c3         1 K83      -0.084600
     14 C15          5.3090    -3.0220    -2.5850 c3         1 K83      -0.084600
     15 C16          1.4810    -2.0460     0.0840 c3         1 K83       0.188800
     16 C17          0.5100    -0.9810    -0.4270 c3         1 K83       0.097100
     17 O18          0.6450    -0.7250    -1.8060 oh         1 K83      -0.591800
     18 C19         -0.9390    -1.3090    -0.0370 c3         1 K83       0.080700
     19 N20         -1.7950    -0.2120    -0.4230 ns         1 K83      -0.563900
     20 C32         -1.4550    -2.6300    -0.6290 c3         1 K83      -0.046100
     21 C33         -3.9520    -2.5520    -0.9510 ca         1 K83      -0.118000
     22 C34         -5.2470    -2.7750    -0.5040 ca         1 K83      -0.122500
     23 C35         -5.4650    -3.3740     0.7290 ca         1 K83      -0.122000
     24 C36         -4.3790    -3.7490     1.5110 ca         1 K83      -0.122500
     25 C37         -3.0870    -3.5220     1.0600 ca         1 K83      -0.118000
     26 C38         -2.8560    -2.9210    -0.1750 ca         1 K83      -0.083300
     27 S8           3.5300    -0.7690     1.2570 sy         1 K83       1.329200
     28 O9           4.9760    -0.9060     1.1690 o          1 K83      -0.613300
     29 O10          2.8410    -1.1420     2.4840 o          1 K83      -0.613300
     30 C5           3.1550     0.9310     0.9460 ca         1 K83      -0.342500
     31 C4           2.0710     1.5350     1.5810 ca         1 K83       0.006500
     32 C6           3.9310     1.6600     0.0560 ca         1 K83       0.006500
     33 C3           1.7550     2.8470     1.3040 ca         1 K83      -0.214500
     34 C7           3.6170     2.9790    -0.2290 ca         1 K83      -0.214500
     35 C2           2.5210     3.5810     0.3910 ca         1 K83       0.196100
     36 O1           2.1390     4.8450     0.1810 os         1 K83      -0.310900
     37 C1           2.8880     5.6460    -0.7160 c3         1 K83       0.122700
     38 H27         -3.3340     2.7490     1.5950 ha         1 K83       0.168000
     39 H25         -5.6690     4.3350    -1.6280 ha         1 K83       0.132000
     40 H24         -5.1620     2.3380    -2.9700 ha         1 K83       0.132000
     41 H23         -3.7440     0.5500    -2.0790 ha         1 K83       0.132000
     42 HO27        -5.3250     5.3740     0.3970 ho         1 K83       0.426000
     43 H12          2.9070    -1.9430    -2.0060 h1         1 K83       0.046200
     44 H12A         4.1650    -0.8880    -1.4510 h1         1 K83       0.046200
     45 H13          5.3700    -2.8210    -0.4580 hc         1 K83       0.079700
     46 H14          4.6290    -5.1390    -0.9600 hc         1 K83       0.033533
     47 H14A         3.4510    -4.3140     0.0520 hc         1 K83       0.033533
     48 H14B         3.1410    -4.5230    -1.6750 hc         1 K83       0.033533
     49 H15          5.8350    -2.0880    -2.7890 hc         1 K83       0.033533
     50 H15A         6.0400    -3.8300    -2.6320 hc         1 K83       0.033533
     51 H15B         4.5880    -3.1810    -3.3920 hc         1 K83       0.033533
     52 H16          1.3890    -2.9630    -0.5030 h1         1 K83       0.072700
     53 H16A         1.2130    -2.3220     1.1050 h1         1 K83       0.072700
     54 H17          0.7490    -0.0320     0.0580 h1         1 K83       0.089700
     55 HO18         0.4960    -1.5390    -2.3000 ho         1 K83       0.399000
     56 H19         -0.9790    -1.3820     1.0510 h1         1 K83       0.099700
     57 HN20        -1.7720     0.0630    -1.3920 hn         1 K83       0.322500
     58 H32         -1.4240    -2.5910    -1.7220 hc         1 K83       0.047200
     59 H32A        -0.7920    -3.4420    -0.3210 hc         1 K83       0.047200
     60 H33         -3.7890    -2.0900    -1.9180 ha         1 K83       0.125000
     61 H34         -6.0880    -2.4840    -1.1220 ha         1 K83       0.131000
     62 H35         -6.4740    -3.5500     1.0790 ha         1 K83       0.131000
     63 H36         -4.5410    -4.2230     2.4710 ha         1 K83       0.131000
     64 H37         -2.2440    -3.8170     1.6760 ha         1 K83       0.125000
     65 H4           1.4710     0.9870     2.2960 ha         1 K83       0.153000
     66 H6           4.7970     1.2200    -0.4210 ha         1 K83       0.153000
     67 H3           0.9150     3.3190     1.7960 ha         1 K83       0.146500
     68 H7           4.2400     3.5190    -0.9270 ha         1 K83       0.146500
     69 H1           3.9220     5.7660    -0.3850 h1         1 K83       0.045367
     70 H1A          2.8820     5.2340    -1.7280 h1         1 K83       0.045367
     71 H1B          2.4070     6.6200    -0.7320 h1         1 K83       0.045367
@<TRIPOS>BOND
     1     1     2 2   
     2     1     3 1   
     3     1    19 1   
     4     3     4 ar  
     5     3     8 ar  
     6     4     5 ar  
     7     4    38 1   
     8     5     6 ar  
     9     5     9 1   
    10     6     7 ar  
    11     6    39 1   
    12     7     8 ar  
    13     7    40 1   
    14     8    41 1   
    15     9    42 1   
    16    10    11 1   
    17    10    15 1   
    18    10    27 1   
    19    11    12 1   
    20    11    43 1   
    21    11    44 1   
    22    12    13 1   
    23    12    14 1   
    24    12    45 1   
    25    13    46 1   
    26    13    47 1   
    27    13    48 1   
    28    14    49 1   
    29    14    50 1   
    30    14    51 1   
    31    15    16 1   
    32    15    52 1   
    33    15    53 1   
    34    16    17 1   
    35    16    18 1   
    36    16    54 1   
    37    17    55 1   
    38    18    19 1   
    39    18    20 1   
    40    18    56 1   
    41    19    57 1   
    42    20    26 1   
    43    20    58 1   
    44    20    59 1   
    45    21    22 ar  
    46    21    26 ar  
    47    21    60 1   
    48    22    23 ar  
    49    22    61 1   
    50    23    24 ar  
    51    23    62 1   
    52    24    25 ar  
    53    24    63 1   
    54    25    26 ar  
    55    25    64 1   
    56    27    28 2   
    57    27    29 2   
    58    27    30 1   
    59    30    31 ar  
    60    30    32 ar  
    61    31    33 ar  
    62    31    65 1   
    63    32    34 ar  
    64    32    66 1   
    65    33    35 ar  
    66    33    67 1   
    67    34    35 ar  
    68    34    68 1   
    69    35    36 1   
    70    36    37 1   
    71    37    69 1   
    72    37    70 1   
    73    37    71 1   
@<TRIPOS>SUBSTRUCTURE
     1 K83         1 TEMP              0 ****  ****    0 ROOT
