@<TRIPOS>MOLECULE
K84
   67    68     1     0     0
SMALL
abcg2


@<TRIPOS>ATOM
      1 C21          5.3130     3.4050    -0.6090 c2         1 K84      -0.217200
      2 C22          6.3630     3.0330     0.1230 c2         1 K84      -0.214200
      3 C23          6.7320     1.6470     0.5520 c3         1 K84      -0.044200
      4 C24          8.1210     1.2350     0.0600 c3         1 K84      -0.072400
      5 C25          8.5250    -0.1570     0.5280 c3         1 K84      -0.075400
      6 C26          9.9290    -0.5560     0.0900 c3         1 K84      -0.074400
      7 C27         10.3230    -1.9580     0.5390 c3         1 K84      -0.074400
      8 C28         11.7350    -2.3510     0.1230 c3         1 K84      -0.075400
      9 C29         12.1260    -3.7570     0.5640 c3         1 K84      -0.075400
     10 C30         13.5400    -4.1410     0.1510 c3         1 K84      -0.088100
     11 OAA         -4.5470     1.3640     1.2440 o          1 K84      -0.470100
     12 CAD        -11.4110    -1.4900     0.8960 ca         1 K84      -0.142000
     13 CAG        -10.9510    -2.2020    -0.2000 ca         1 K84      -0.080000
     14 CAH        -10.5330    -0.6280     1.5440 ca         1 K84       0.337900
     15 CAK         -9.6390    -2.0280    -0.6090 ca         1 K84      -0.108000
     16 NAL         -6.8130    -1.4660    -1.2630 nc         1 K84      -0.364000
     17 CAM          0.4750     2.0320    -0.1650 c3         1 K84      -0.074400
     18 CAN         -0.6800     1.2180    -0.7340 c3         1 K84      -0.075400
     19 CAO          1.7680     1.8830    -0.9560 c3         1 K84      -0.074400
     20 CAP         -1.9590     1.3720     0.0800 c3         1 K84      -0.069400
     21 CAQ          2.9140     2.7030    -0.3780 c3         1 K84      -0.072400
     22 CAR         -3.1000     0.5490    -0.4950 c3         1 K84      -0.163400
     23 NAS         -9.2770    -0.4540     1.1640 nb         1 K84      -0.635000
     24 NAT         -5.5550    -0.9600    -1.2200 nc         1 K84      -0.331000
     25 OAU         -6.6930    -0.0860     0.4130 os         1 K84      -0.201000
     26 CAV          4.2250     2.5280    -1.1480 c3         1 K84      -0.043200
     27 CAW         -8.8480    -1.1410     0.1110 ca         1 K84       0.292000
     28 CAX         -7.4590    -0.9260    -0.2800 cd         1 K84       0.379000
     29 CAY         -5.5160    -0.1490    -0.2210 cd         1 K84       0.323500
     30 CAZ         -4.3800     0.6680     0.2730 c          1 K84       0.512600
     31 H21          5.1970     4.4650    -0.8190 ha         1 K84       0.165000
     32 H22          7.0470     3.8120     0.4510 ha         1 K84       0.165000
     33 H23          6.7240     1.6030     1.6470 hc         1 K84       0.044200
     34 H23A         5.9930     0.9180     0.2130 hc         1 K84       0.044200
     35 H24          8.1420     1.2760    -1.0340 hc         1 K84       0.039200
     36 H24A         8.8590     1.9660     0.4070 hc         1 K84       0.039200
     37 H25          8.4600    -0.2050     1.6210 hc         1 K84       0.036700
     38 H25A         7.8030    -0.8890     0.1490 hc         1 K84       0.036700
     39 H26         10.0020    -0.4910    -1.0020 hc         1 K84       0.037700
     40 H26A        10.6500     0.1680     0.4850 hc         1 K84       0.037700
     41 H27         10.2340    -2.0280     1.6290 hc         1 K84       0.036700
     42 H27A         9.6100    -2.6830     0.1310 hc         1 K84       0.036700
     43 H28         11.8280    -2.2750    -0.9660 hc         1 K84       0.036700
     44 H28A        12.4490    -1.6310     0.5380 hc         1 K84       0.036700
     45 H29         12.0290    -3.8340     1.6520 hc         1 K84       0.036700
     46 H29A        11.4150    -4.4770     0.1470 hc         1 K84       0.036700
     47 H30         13.6590    -4.1030    -0.9330 hc         1 K84       0.031367
     48 H30A        14.2770    -3.4620     0.5860 hc         1 K84       0.031367
     49 H30B        13.7910    -5.1510     0.4760 hc         1 K84       0.031367
     50 HAG        -11.6010    -2.8850    -0.7290 ha         1 K84       0.128000
     51 HAH        -10.8610    -0.0580     2.4050 h4         1 K84       0.029100
     52 HAK         -9.2410    -2.5630    -1.4590 ha         1 K84       0.150000
     53 HAM          0.1910     3.0890    -0.1300 hc         1 K84       0.039700
     54 HAMA         0.6500     1.7310     0.8740 hc         1 K84       0.039700
     55 HAN         -0.8650     1.5230    -1.7700 hc         1 K84       0.039700
     56 HANA        -0.3960     0.1610    -0.7730 hc         1 K84       0.039700
     57 HAO          2.0560     0.8270    -0.9860 hc         1 K84       0.037700
     58 HAOA         1.5970     2.1820    -1.9960 hc         1 K84       0.037700
     59 HAP         -1.7700     1.0680     1.1130 hc         1 K84       0.053200
     60 HAPA        -2.2440     2.4260     0.1130 hc         1 K84       0.053200
     61 HAQ          2.6370     3.7630    -0.3680 hc         1 K84       0.040200
     62 HAQA         3.0760     2.4210     0.6670 hc         1 K84       0.040200
     63 HAR         -3.3040     0.8360    -1.5330 hc         1 K84       0.081700
     64 HARA        -2.8320    -0.5120    -0.5440 hc         1 K84       0.081700
     65 HAV          4.0530     2.7790    -2.2000 hc         1 K84       0.043700
     66 HAVA         4.5190     1.4760    -1.1260 hc         1 K84       0.043700
     67 HAD        -12.4270    -1.5940     1.2480 ha         1 K84       0.130000
@<TRIPOS>BOND
     1     1     2 2   
     2     1    26 1   
     3     1    31 1   
     4     2     3 1   
     5     2    32 1   
     6     3     4 1   
     7     3    33 1   
     8     3    34 1   
     9     4     5 1   
    10     4    35 1   
    11     4    36 1   
    12     5     6 1   
    13     5    37 1   
    14     5    38 1   
    15     6     7 1   
    16     6    39 1   
    17     6    40 1   
    18     7     8 1   
    19     7    41 1   
    20     7    42 1   
    21     8     9 1   
    22     8    43 1   
    23     8    44 1   
    24     9    10 1   
    25     9    45 1   
    26     9    46 1   
    27    10    47 1   
    28    10    48 1   
    29    10    49 1   
    30    11    30 2   
    31    12    13 ar  
    32    12    14 ar  
    33    12    67 1   
    34    13    15 ar  
    35    13    50 1   
    36    14    23 ar  
    37    14    51 1   
    38    15    27 ar  
    39    15    52 1   
    40    16    24 1   
    41    16    28 2   
    42    17    18 1   
    43    17    19 1   
    44    17    53 1   
    45    17    54 1   
    46    18    20 1   
    47    18    55 1   
    48    18    56 1   
    49    19    21 1   
    50    19    57 1   
    51    19    58 1   
    52    20    22 1   
    53    20    59 1   
    54    20    60 1   
    55    21    26 1   
    56    21    61 1   
    57    21    62 1   
    58    22    30 1   
    59    22    63 1   
    60    22    64 1   
    61    23    27 ar  
    62    24    29 2   
    63    25    28 1   
    64    25    29 1   
    65    26    65 1   
    66    26    66 1   
    67    27    28 1   
    68    29    30 1   
@<TRIPOS>SUBSTRUCTURE
     1 K84         1 TEMP              0 ****  ****    0 ROOT
