@<TRIPOS>MOLECULE
K84
   67    68     1     0     0
SMALL
No Charge or Current Charge


@<TRIPOS>ATOM
      1 C21          5.6760     4.0900    -0.6940 c2         1 K84      -0.217200
      2 C22          6.6580     3.7950     0.1760 c2         1 K84      -0.214200
      3 C23          6.9030     2.4580     0.8520 c3         1 K84      -0.044200
      4 C24          7.9640     1.6190     0.1110 c3         1 K84      -0.072400
      5 C25          8.2240     0.2480     0.7720 c3         1 K84      -0.075400
      6 C26          9.2840    -0.5910     0.0260 c3         1 K84      -0.074400
      7 C27          9.5430    -1.9630     0.6870 c3         1 K84      -0.074400
      8 C28         10.6030    -2.8030    -0.0590 c3         1 K84      -0.075400
      9 C29         10.8630    -4.1740     0.6010 c3         1 K84      -0.075400
     10 C30         11.9200    -5.0120    -0.1430 c3         1 K84      -0.088100
     11 OAA         -4.1450     1.3640     1.2820 o          1 K84      -0.470100
     12 CAD        -10.9420    -2.2520     0.7570 ca         1 K84      -0.142000
     13 CAG        -10.3440    -2.9380    -0.3110 ca         1 K84      -0.080000
     14 CAH        -10.1960    -1.2840     1.4490 ca         1 K84       0.337900
     15 CAK         -9.0150    -2.6230    -0.6430 ca         1 K84      -0.108000
     16 NAL         -6.1800    -1.8280    -1.2170 nc         1 K84      -0.364000
     17 CAM          0.8830     2.3860    -0.1590 c3         1 K84      -0.074400
     18 CAN         -0.2080     1.4210    -0.6730 c3         1 K84      -0.075400
     19 CAO          2.2040     2.2820    -0.9520 c3         1 K84      -0.074400
     20 CAP         -1.5290     1.5240     0.1200 c3         1 K84      -0.069400
     21 CAQ          3.2950     3.2460    -0.4370 c3         1 K84      -0.072400
     22 CAR         -2.6200     0.5540    -0.4000 c3         1 K84      -0.163400
     23 NAS         -8.9160    -0.9770     1.1330 nb         1 K84      -0.635000
     24 NAT         -4.9600    -1.1960    -1.1420 nc         1 K84      -0.331000
     25 OAU         -6.2710    -0.3420     0.4800 os         1 K84      -0.201000
     26 CAV          4.6170     3.1410    -1.2260 c3         1 K84      -0.043200
     27 CAW         -8.3220    -1.6360     0.0960 ca         1 K84       0.292000
     28 CAX         -6.9120    -1.2930    -0.2470 cd         1 K84       0.379000
     29 CAY         -5.0570    -0.3320    -0.1330 cd         1 K84       0.323500
     30 CAZ         -3.9760     0.5940     0.3400 c          1 K84       0.512600
     31 H21          5.6030     5.1010    -1.1010 ha         1 K84       0.165000
     32 H22          7.3660     4.5720     0.4710 ha         1 K84       0.165000
     33 H23          7.2280     2.6230     1.8870 hc         1 K84       0.044200
     34 H23A         5.9730     1.8810     0.9170 hc         1 K84       0.044200
     35 H24          7.6370     1.4640    -0.9250 hc         1 K84       0.039200
     36 H24A         8.9030     2.1850     0.0680 hc         1 K84       0.039200
     37 H25          8.5510     0.4040     1.8080 hc         1 K84       0.036700
     38 H25A         7.2830    -0.3150     0.8140 hc         1 K84       0.036700
     39 H26          8.9570    -0.7460    -1.0100 hc         1 K84       0.037700
     40 H26A        10.2250    -0.0280    -0.0160 hc         1 K84       0.037700
     41 H27          9.8710    -1.8080     1.7230 hc         1 K84       0.036700
     42 H27A         8.6020    -2.5260     0.7290 hc         1 K84       0.036700
     43 H28         10.2760    -2.9580    -1.0950 hc         1 K84       0.036700
     44 H28A        11.5450    -2.2400    -0.1010 hc         1 K84       0.036700
     45 H29         11.1920    -4.0230     1.6370 hc         1 K84       0.036700
     46 H29A         9.9240    -4.7410     0.6430 hc         1 K84       0.036700
     47 H30         11.6030    -5.2110    -1.1740 hc         1 K84       0.031367
     48 H30A        12.8820    -4.4870    -0.1710 hc         1 K84       0.031367
     49 H30B        12.0690    -5.9740     0.3620 hc         1 K84       0.031367
     50 HAG        -10.8940    -3.6940    -0.8680 ha         1 K84       0.128000
     51 HAH        -10.6360    -0.7370     2.2820 h4         1 K84       0.029100
     52 HAK         -8.5270    -3.1380    -1.4660 ha         1 K84       0.150000
     53 HAM          0.5090     3.4160    -0.2160 hc         1 K84       0.039700
     54 HAMA         1.0810     2.1750     0.8990 hc         1 K84       0.039700
     55 HAN         -0.4050     1.6320    -1.7320 hc         1 K84       0.039700
     56 HANA         0.1670     0.3910    -0.6160 hc         1 K84       0.039700
     57 HAO          2.5780     1.2520    -0.8950 hc         1 K84       0.037700
     58 HAOA         2.0070     2.4930    -2.0110 hc         1 K84       0.037700
     59 HAP         -1.3310     1.3130     1.1780 hc         1 K84       0.053200
     60 HAPA        -1.9030     2.5550     0.0620 hc         1 K84       0.053200
     61 HAQ          2.9240     4.2770    -0.4940 hc         1 K84       0.040200
     62 HAQA         3.4930     3.0350     0.6210 hc         1 K84       0.040200
     63 HAR         -2.8220     0.7010    -1.4680 hc         1 K84       0.081700
     64 HARA        -2.2740    -0.4860    -0.4000 hc         1 K84       0.081700
     65 HAV          4.4270     3.3580    -2.2840 hc         1 K84       0.043700
     66 HAVA         4.9730     2.1050    -1.1900 hc         1 K84       0.043700
     67 HAD        -11.9660    -2.4620     1.0510 ha         1 K84       0.130000
@<TRIPOS>BOND
     1     1     2 2   
     2     1    26 1   
     3     1    31 1   
     4     2     3 1   
     5     2    32 1   
     6     3     4 1   
     7     3    33 1   
     8     3    34 1   
     9     4     5 1   
    10     4    35 1   
    11     4    36 1   
    12     5     6 1   
    13     5    37 1   
    14     5    38 1   
    15     6     7 1   
    16     6    39 1   
    17     6    40 1   
    18     7     8 1   
    19     7    41 1   
    20     7    42 1   
    21     8     9 1   
    22     8    43 1   
    23     8    44 1   
    24     9    10 1   
    25     9    45 1   
    26     9    46 1   
    27    10    47 1   
    28    10    48 1   
    29    10    49 1   
    30    11    30 2   
    31    12    13 ar  
    32    12    14 ar  
    33    12    67 1   
    34    13    15 ar  
    35    13    50 1   
    36    14    23 ar  
    37    14    51 1   
    38    15    27 ar  
    39    15    52 1   
    40    16    24 1   
    41    16    28 2   
    42    17    18 1   
    43    17    19 1   
    44    17    53 1   
    45    17    54 1   
    46    18    20 1   
    47    18    55 1   
    48    18    56 1   
    49    19    21 1   
    50    19    57 1   
    51    19    58 1   
    52    20    22 1   
    53    20    59 1   
    54    20    60 1   
    55    21    26 1   
    56    21    61 1   
    57    21    62 1   
    58    22    30 1   
    59    22    63 1   
    60    22    64 1   
    61    23    27 ar  
    62    24    29 2   
    63    25    28 1   
    64    25    29 1   
    65    26    65 1   
    66    26    66 1   
    67    27    28 1   
    68    29    30 1   
@<TRIPOS>SUBSTRUCTURE
     1 K84         1 TEMP              0 ****  ****    0 ROOT
