@<TRIPOS>MOLECULE
K85
   43    44     1     0     0
SMALL
abcg2


@<TRIPOS>ATOM
      1 F19          5.1070     1.9350    -1.1660 f          1 K85      -0.113667
      2 C17          5.2610     0.7610    -0.5450 c3         1 K85       0.356300
      3 F20          6.0510     0.0080    -1.3190 f          1 K85      -0.113667
      4 F18          5.9480     1.0050     0.5810 f          1 K85      -0.113667
      5 C13          3.9530     0.0910    -0.2540 ca         1 K85      -0.167300
      6 C14          2.7980     0.8440    -0.1490 ca         1 K85      -0.065000
      7 C12          3.9460    -1.2850    -0.0410 ca         1 K85      -0.149000
      8 C11          2.7470    -1.9130     0.2780 ca         1 K85       0.131100
      9 O15          2.6220    -3.2320     0.4930 os         1 K85      -0.339100
     10 C16          3.7670    -4.0540     0.3680 c3         1 K85       0.146900
     11 C10          1.5780    -1.1620     0.3860 ca         1 K85      -0.093000
     12 C9           1.6000     0.2070     0.1750 ca         1 K85      -0.087500
     13 C6           0.3690     0.9920     0.2910 cc         1 K85       0.582500
     14 N7           0.3070     2.3200     0.0470 nc         1 K85      -0.691000
     15 C8          -0.9550     2.6050     0.2730 cd         1 K85       0.419400
     16 N5          -0.7810     0.4640     0.6510 nd         1 K85      -0.533800
     17 N4          -1.6140     1.5020     0.6360 na         1 K85      -0.059700
     18 C3          -3.0120     1.3470     0.9750 c3         1 K85       0.099600
     19 C2          -3.7330     0.4930    -0.0550 c3         1 K85      -0.163400
     20 C1          -5.1860     0.3100     0.2980 c          1 K85       0.601100
     21 O           -5.7510     0.9190     1.1730 o          1 K85      -0.497000
     22 O1          -5.7580    -0.5960    -0.4770 os         1 K85      -0.449100
     23 C7          -7.1640    -0.8940    -0.3020 c3         1 K85       0.180300
     24 C4          -8.0050     0.1050    -1.0730 c3         1 K85      -0.106100
     25 C5          -7.3610    -2.3150    -0.7880 c3         1 K85      -0.106100
     26 H1           2.8050     1.9130    -0.3110 ha         1 K85       0.154000
     27 H2           4.8610    -1.8550    -0.1280 ha         1 K85       0.132000
     28 H3           4.5370    -3.7940     1.0980 h1         1 K85       0.044367
     29 H4           3.4350    -5.0720     0.5580 h1         1 K85       0.044367
     30 H5           4.1960    -4.0050    -0.6350 h1         1 K85       0.044367
     31 H6           0.6500    -1.6630     0.6330 ha         1 K85       0.147000
     32 H7          -1.4230     3.5740     0.1910 h5         1 K85       0.068100
     33 H8          -3.0720     0.9030     1.9680 h1         1 K85       0.079200
     34 H9          -3.4400     2.3460     1.0320 h1         1 K85       0.079200
     35 H10         -3.6750     0.9590    -1.0430 hc         1 K85       0.091700
     36 H11         -3.2570    -0.4850    -0.1470 hc         1 K85       0.091700
     37 H12         -7.4050    -0.8390     0.7610 h1         1 K85       0.064700
     38 H13         -7.7960     0.0510    -2.1430 hc         1 K85       0.048700
     39 H14         -9.0620    -0.1200    -0.9260 hc         1 K85       0.048700
     40 H15         -7.8370     1.1270    -0.7360 hc         1 K85       0.048700
     41 H16         -6.7450    -3.0190    -0.2280 hc         1 K85       0.048700
     42 H17         -8.4030    -2.6030    -0.6520 hc         1 K85       0.048700
     43 H18         -7.1230    -2.4110    -1.8490 hc         1 K85       0.048700
@<TRIPOS>BOND
     1     1     2 1   
     2     2     3 1   
     3     2     4 1   
     4     2     5 1   
     5     5     6 ar  
     6     5     7 ar  
     7     6    12 ar  
     8     6    26 1   
     9     7     8 ar  
    10     7    27 1   
    11     8     9 1   
    12     8    11 ar  
    13     9    10 1   
    14    10    28 1   
    15    10    29 1   
    16    10    30 1   
    17    11    12 ar  
    18    11    31 1   
    19    12    13 1   
    20    13    14 1   
    21    13    16 2   
    22    14    15 2   
    23    15    17 1   
    24    15    32 1   
    25    16    17 1   
    26    17    18 1   
    27    18    19 1   
    28    18    33 1   
    29    18    34 1   
    30    19    20 1   
    31    19    35 1   
    32    19    36 1   
    33    20    21 2   
    34    20    22 1   
    35    22    23 1   
    36    23    24 1   
    37    23    25 1   
    38    23    37 1   
    39    24    38 1   
    40    24    39 1   
    41    24    40 1   
    42    25    41 1   
    43    25    42 1   
    44    25    43 1   
@<TRIPOS>SUBSTRUCTURE
     1 K85         1 TEMP              0 ****  ****    0 ROOT
