@<TRIPOS>MOLECULE
K85
   43    44     1     0     0
SMALL
No Charge or Current Charge


@<TRIPOS>ATOM
      1 F19          5.2340     2.0410    -0.6130 f          1 K85      -0.113667
      2 C17          5.3420     0.8280    -0.0240 c3         1 K85       0.356300
      3 F20          6.2930     0.1510    -0.7090 f          1 K85      -0.113667
      4 F18          5.8270     1.0360     1.2210 f          1 K85      -0.113667
      5 C13          4.0020     0.0800     0.0190 ca         1 K85      -0.167300
      6 C14          2.7960     0.7970     0.1800 ca         1 K85      -0.065000
      7 C12          3.9560    -1.3280    -0.0760 ca         1 K85      -0.149000
      8 C11          2.7210    -2.0060    -0.0260 ca         1 K85       0.131100
      9 O15          2.6230    -3.3810    -0.1180 os         1 K85      -0.339100
     10 C16          3.7760    -4.2270    -0.2750 c3         1 K85       0.146900
     11 C10          1.5320    -1.2770     0.1240 ca         1 K85      -0.093000
     12 C9           1.5470     0.1330     0.2320 ca         1 K85      -0.087500
     13 C6           0.2870     0.8860     0.3960 cc         1 K85       0.582500
     14 N7           0.3000     2.2470     0.5000 nc         1 K85      -0.691000
     15 C8          -0.9760     2.5590     0.6310 cd         1 K85       0.419400
     16 N5          -0.8990     0.3030     0.4520 nd         1 K85      -0.533800
     17 N4          -1.7190     1.3880     0.6030 na         1 K85      -0.059700
     18 C3          -3.1820     1.2530     0.7140 c3         1 K85       0.099600
     19 C2          -3.8730     1.0880    -0.6550 c3         1 K85      -0.163400
     20 C1          -5.3780     0.9450    -0.4730 c          1 K85       0.601100
     21 O           -6.1360     1.9000    -0.3730 o          1 K85      -0.497000
     22 O1          -5.7380    -0.3640    -0.2830 os         1 K85      -0.449100
     23 C7          -7.1270    -0.6910    -0.0870 c3         1 K85       0.180300
     24 C4          -7.8510    -0.6160    -1.4490 c3         1 K85      -0.106100
     25 C5          -7.1620    -2.1070     0.5170 c3         1 K85      -0.106100
     26 H1           2.8320     1.8810     0.2680 ha         1 K85       0.154000
     27 H2           4.8850    -1.8820    -0.1840 ha         1 K85       0.132000
     28 H3           4.4610    -4.1150     0.5750 h1         1 K85       0.044367
     29 H4           3.4710    -5.2800    -0.3280 h1         1 K85       0.044367
     30 H5           4.3160    -3.9840    -1.1990 h1         1 K85       0.044367
     31 H6           0.5920    -1.8210     0.1600 ha         1 K85       0.147000
     32 H7          -1.4160     3.5430     0.7420 h5         1 K85       0.068100
     33 H8          -3.4040     0.3830     1.3450 h1         1 K85       0.079200
     34 H9          -3.5800     2.1420     1.2220 h1         1 K85       0.079200
     35 H10         -3.6630     1.9650    -1.2760 hc         1 K85       0.091700
     36 H11         -3.4790     0.1760    -1.1180 hc         1 K85       0.091700
     37 H12         -7.6010    -0.0000     0.6250 h1         1 K85       0.064700
     38 H13         -7.3590    -1.2600    -2.1880 hc         1 K85       0.048700
     39 H14         -8.8910    -0.9460    -1.3470 hc         1 K85       0.048700
     40 H15         -7.8630     0.4090    -1.8370 hc         1 K85       0.048700
     41 H16         -6.6310    -2.1280     1.4760 hc         1 K85       0.048700
     42 H17         -8.1970    -2.4230     0.6940 hc         1 K85       0.048700
     43 H18         -6.6900    -2.8310    -0.1580 hc         1 K85       0.048700
@<TRIPOS>BOND
     1     1     2 1   
     2     2     3 1   
     3     2     4 1   
     4     2     5 1   
     5     5     6 ar  
     6     5     7 ar  
     7     6    12 ar  
     8     6    26 1   
     9     7     8 ar  
    10     7    27 1   
    11     8     9 1   
    12     8    11 ar  
    13     9    10 1   
    14    10    28 1   
    15    10    29 1   
    16    10    30 1   
    17    11    12 ar  
    18    11    31 1   
    19    12    13 1   
    20    13    14 1   
    21    13    16 2   
    22    14    15 2   
    23    15    17 1   
    24    15    32 1   
    25    16    17 1   
    26    17    18 1   
    27    18    19 1   
    28    18    33 1   
    29    18    34 1   
    30    19    20 1   
    31    19    35 1   
    32    19    36 1   
    33    20    21 2   
    34    20    22 1   
    35    22    23 1   
    36    23    24 1   
    37    23    25 1   
    38    23    37 1   
    39    24    38 1   
    40    24    39 1   
    41    24    40 1   
    42    25    41 1   
    43    25    42 1   
    44    25    43 1   
@<TRIPOS>SUBSTRUCTURE
     1 K85         1 TEMP              0 ****  ****    0 ROOT
