@<TRIPOS>MOLECULE
K86
   68    71     1     0     0
SMALL
No Charge or Current Charge


@<TRIPOS>ATOM
      1 C10          4.6100    -0.7200    -0.6580 ca         1 K86      -0.139500
      2 C15         -0.4590    -0.6510    -0.0820 ca         1 K86       0.403900
      3 C17         -1.9860     1.0960     0.5550 ca         1 K86       0.366300
      4 C21          1.3830     2.5400     0.0620 cp         1 K86       0.078000
      5 C24          3.4060     4.3430    -0.0820 ca         1 K86      -0.207000
      6 C28         -3.5490     2.9090     1.1380 c3         1 K86       0.166600
      7 C1           6.3010     0.7820     1.4190 c3         1 K86      -0.083100
      8 C2           6.3680    -0.7560     1.2090 c3         1 K86      -0.008700
      9 C3           7.5390    -1.0920     0.2460 c3         1 K86      -0.083100
     10 C4           6.6760    -1.4110     2.5850 c3         1 K86      -0.083100
     11 C5           5.0350    -1.2480     0.5840 ca         1 K86      -0.004300
     12 C6           4.2060    -2.2140     1.2080 ca         1 K86      -0.139500
     13 C7           3.0010    -2.6280     0.6150 ca         1 K86       0.002000
     14 C8           2.5950    -2.0850    -0.6160 ca         1 K86      -0.303500
     15 C9           3.4050    -1.1270    -1.2530 ca         1 K86       0.002000
     16 S11          1.0330    -2.5940    -1.3440 sy         1 K86       1.192600
     17 O12          0.8150    -1.9240    -2.6280 o          1 K86      -0.527000
     18 O13          0.8550    -4.0380    -1.1770 o          1 K86      -0.527000
     19 N14         -0.1580    -1.9760    -0.3490 nu         1 K86      -0.872000
     20 C16         -1.7680    -0.2690     0.2620 ca         1 K86      -0.079900
     21 N18         -0.9710     1.9840     0.4880 nb         1 K86      -0.249000
     22 C19          0.2560     1.5360     0.1390 cp         1 K86       0.165000
     23 N20          0.5390     0.2460    -0.1420 nb         1 K86      -0.230000
     24 N22          1.1140     3.8250     0.4030 nb         1 K86      -0.132000
     25 C23          2.1190     4.7210     0.3330 ca         1 K86       0.101900
     26 C25          3.6040     2.9950    -0.4210 ca         1 K86       0.101900
     27 N26          2.5980     2.1000    -0.3470 nb         1 K86      -0.132000
     28 O27         -3.2480     1.5120     0.9290 os         1 K86      -0.427300
     29 C29         -5.0450     3.0490     1.5170 c3         1 K86       0.157600
     30 O30         -5.3110     2.5040     2.8230 oh         1 K86      -0.647000
     31 O31         -2.7830    -1.2110     0.3190 os         1 K86      -0.203200
     32 C32         -3.9740    -1.0670    -0.3650 ca         1 K86       0.092100
     33 C33         -4.0110    -0.3940    -1.6050 ca         1 K86      -0.136000
     34 C34         -5.2260    -0.2560    -2.2960 ca         1 K86      -0.118000
     35 C35         -6.4060    -0.7930    -1.7570 ca         1 K86      -0.098000
     36 C36         -6.3760    -1.4750    -0.5280 ca         1 K86      -0.178000
     37 C37         -5.1580    -1.6190     0.1760 ca         1 K86       0.128100
     38 O38         -5.0850    -2.2870     1.3870 os         1 K86      -0.320100
     39 C39         -6.2400    -2.8670     2.0180 c3         1 K86       0.145900
     40 H1           5.2130     0.0220    -1.1740 ha         1 K86       0.115000
     41 H2           4.2160     5.0650    -0.1410 ha         1 K86       0.138000
     42 H3          -2.9290     3.3340     1.9390 h1         1 K86       0.065200
     43 H4          -3.3620     3.4830     0.2200 h1         1 K86       0.065200
     44 H5           7.2070     1.1510     1.9150 hc         1 K86       0.037367
     45 H6           6.2090     1.3160     0.4680 hc         1 K86       0.037367
     46 H7           5.4390     1.0500     2.0430 hc         1 K86       0.037367
     47 H8           8.5000    -0.7810     0.6730 hc         1 K86       0.037367
     48 H9           7.5860    -2.1720     0.0580 hc         1 K86       0.037367
     49 H10          7.4270    -0.5860    -0.7190 hc         1 K86       0.037367
     50 H11          5.8880    -1.1880     3.3150 hc         1 K86       0.037367
     51 H12          6.7690    -2.5010     2.4930 hc         1 K86       0.037367
     52 H13          7.6210    -1.0350     2.9950 hc         1 K86       0.037367
     53 H14          4.4720    -2.6590     2.1610 ha         1 K86       0.115000
     54 H15          2.3790    -3.3650     1.1230 ha         1 K86       0.148000
     55 H16          3.1040    -0.6880    -2.2030 ha         1 K86       0.148000
     56 H17         -0.9470    -2.5960    -0.4450 hn         1 K86       0.536000
     57 H18          1.8870     5.7480     0.6110 h4         1 K86       0.030100
     58 H19          4.5720     2.6270    -0.7560 h4         1 K86       0.030100
     59 H20         -5.3110     4.1140     1.4950 h1         1 K86       0.031200
     60 H21         -5.6540     2.5410     0.7560 h1         1 K86       0.031200
     61 H22         -6.2800     2.5730     2.9710 ho         1 K86       0.444000
     62 H23         -3.1020     0.0180    -2.0370 ha         1 K86       0.125000
     63 H24         -5.2530     0.2660    -3.2510 ha         1 K86       0.117000
     64 H25         -7.3460    -0.6840    -2.2950 ha         1 K86       0.114000
     65 H26         -7.3050    -1.8830    -0.1400 ha         1 K86       0.118000
     66 H27         -5.9570    -3.3420     2.9650 h1         1 K86       0.040367
     67 H28         -6.9930    -2.0990     2.2350 h1         1 K86       0.040367
     68 H29         -6.6920    -3.6340     1.3750 h1         1 K86       0.040367
@<TRIPOS>BOND
     1     1    11 ar  
     2     1    15 ar  
     3     1    40 1   
     4     2    19 1   
     5     2    20 ar  
     6     2    23 ar  
     7     3    20 ar  
     8     3    21 ar  
     9     3    28 1   
    10     4    22 1   
    11     4    24 ar  
    12     4    27 ar  
    13     5    25 ar  
    14     5    26 ar  
    15     5    41 1   
    16     6    28 1   
    17     6    29 1   
    18     6    42 1   
    19     6    43 1   
    20     7     8 1   
    21     7    44 1   
    22     7    45 1   
    23     7    46 1   
    24     8     9 1   
    25     8    10 1   
    26     8    11 1   
    27     9    47 1   
    28     9    48 1   
    29     9    49 1   
    30    10    50 1   
    31    10    51 1   
    32    10    52 1   
    33    11    12 ar  
    34    12    13 ar  
    35    12    53 1   
    36    13    14 ar  
    37    13    54 1   
    38    14    15 ar  
    39    14    16 1   
    40    15    55 1   
    41    16    17 2   
    42    16    18 2   
    43    16    19 1   
    44    19    56 1   
    45    20    31 1   
    46    21    22 ar  
    47    22    23 ar  
    48    24    25 ar  
    49    25    57 1   
    50    26    27 ar  
    51    26    58 1   
    52    29    30 1   
    53    29    59 1   
    54    29    60 1   
    55    30    61 1   
    56    31    32 1   
    57    32    33 ar  
    58    32    37 ar  
    59    33    34 ar  
    60    33    62 1   
    61    34    35 ar  
    62    34    63 1   
    63    35    36 ar  
    64    35    64 1   
    65    36    37 ar  
    66    36    65 1   
    67    37    38 1   
    68    38    39 1   
    69    39    66 1   
    70    39    67 1   
    71    39    68 1   
@<TRIPOS>SUBSTRUCTURE
     1 K86         1 TEMP              0 ****  ****    0 ROOT
