@<TRIPOS>MOLECULE
K86
   68    71     1     0     0
SMALL
bcc


@<TRIPOS>ATOM
      1 C10          4.2790    -0.5290    -0.0130 ca         1 K86      -0.157500
      2 C15         -0.4500    -0.3180    -0.7180 ca         1 K86       0.732200
      3 C17         -1.7320     1.3860     0.3030 ca         1 K86       0.694600
      4 C21          1.3020     2.8290    -1.0250 cp         1 K86       0.604000
      5 C24          3.1780     4.6180    -1.6300 ca         1 K86      -0.355600
      6 C28         -3.0200     3.1280     1.2510 c3         1 K86       0.143400
      7 C1           5.4920     0.2190     2.6560 c3         1 K86      -0.083100
      8 C2           5.7350    -1.1290     1.9610 c3         1 K86      -0.008700
      9 C3           7.0340    -1.0600     1.1460 c3         1 K86      -0.083100
     10 C4           5.8940    -2.2020     3.0370 c3         1 K86      -0.083100
     11 C5           4.5730    -1.4220     1.0220 ca         1 K86      -0.004300
     12 C6           3.7730    -2.5580     1.1440 ca         1 K86      -0.157500
     13 C7           2.7240    -2.8010     0.2710 ca         1 K86      -0.016000
     14 C8           2.4620    -1.8910    -0.7420 ca         1 K86      -0.303500
     15 C9           3.2360    -0.7480    -0.8940 ca         1 K86      -0.016000
     16 S11          1.1290    -2.2040    -1.8490 sy         1 K86       1.334200
     17 O12          1.3350    -1.4570    -3.0710 o          1 K86      -0.597800
     18 O13          0.8880    -3.6350    -1.9100 o          1 K86      -0.597800
     19 N14         -0.2390    -1.6250    -1.0770 nu         1 K86      -0.816800
     20 C16         -1.6010     0.0350    -0.0260 ca         1 K86      -0.210500
     21 N18         -0.8100     2.2720    -0.0210 nb         1 K86      -0.775000
     22 C19          0.2520     1.8270    -0.6760 cp         1 K86       0.691000
     23 N20          0.4710     0.5800    -1.0400 nb         1 K86      -0.756000
     24 N22          1.1300     4.0620    -0.5690 nb         1 K86      -0.658000
     25 C23          2.0670     4.9490    -0.8720 ca         1 K86       0.430200
     26 C25          3.2560     3.3030    -2.0560 ca         1 K86       0.430200
     27 N26          2.3240     2.4090    -1.7580 nb         1 K86      -0.658000
     28 O27         -2.8230     1.7440     0.9450 os         1 K86      -0.404100
     29 C29         -4.3620     3.2670     1.9160 c3         1 K86       0.134400
     30 O30         -4.3350     2.6200     3.1650 oh         1 K86      -0.584800
     31 O31         -2.5070    -0.9030     0.3460 os         1 K86      -0.203200
     32 C32         -3.7270    -0.9280    -0.2830 ca         1 K86       0.092100
     33 C33         -3.9940    -0.2770    -1.4700 ca         1 K86      -0.154000
     34 C34         -5.2580    -0.3760    -2.0460 ca         1 K86      -0.136000
     35 C35         -6.2380    -1.1280    -1.4280 ca         1 K86      -0.116000
     36 C36         -5.9670    -1.7920    -0.2340 ca         1 K86      -0.196000
     37 C37         -4.7110    -1.7000     0.3510 ca         1 K86       0.128100
     38 O38         -4.3430    -2.2980     1.4970 os         1 K86      -0.296900
     39 C39         -5.2960    -3.0990     2.1670 c3         1 K86       0.122700
     40 H1           4.8760     0.3640    -0.1420 ha         1 K86       0.133000
     41 H2           3.9380     5.3440    -1.8750 ha         1 K86       0.156000
     42 H3          -2.2190     3.4880     1.9010 h1         1 K86       0.065200
     43 H4          -3.0040     3.7250     0.3370 h1         1 K86       0.065200
     44 H5           6.3040     0.4310     3.3540 hc         1 K86       0.037367
     45 H6           5.4420     1.0470     1.9490 hc         1 K86       0.037367
     46 H7           4.5610     0.2050     3.2260 hc         1 K86       0.037367
     47 H8           7.8800    -0.8620     1.8060 hc         1 K86       0.037367
     48 H9           7.2270    -2.0030     0.6330 hc         1 K86       0.037367
     49 H10          7.0070    -0.2680     0.3960 hc         1 K86       0.037367
     50 H11          5.0110    -2.2740     3.6750 hc         1 K86       0.037367
     51 H12          6.0880    -3.1880     2.6110 hc         1 K86       0.037367
     52 H13          6.7410    -1.9540     3.6780 hc         1 K86       0.037367
     53 H14          3.9570    -3.2820     1.9240 ha         1 K86       0.133000
     54 H15          2.1270    -3.6950     0.3900 ha         1 K86       0.166000
     55 H16          3.0170    -0.0210    -1.6630 ha         1 K86       0.166000
     56 H17         -0.8490    -2.3410    -0.7020 hn         1 K86       0.480800
     57 H18          1.9270     5.9560    -0.4970 h4         1 K86       0.030100
     58 H19          4.0900     2.9580    -2.6560 h4         1 K86       0.030100
     59 H20         -4.5580     4.3430     2.0120 h1         1 K86       0.031200
     60 H21         -5.1390     2.8600     1.2570 h1         1 K86       0.031200
     61 H22         -5.2270     2.6250     3.5240 ho         1 K86       0.405000
     62 H23         -3.2280     0.3080    -1.9640 ha         1 K86       0.143000
     63 H24         -5.4600     0.1360    -2.9770 ha         1 K86       0.135000
     64 H25         -7.2230    -1.2110    -1.8660 ha         1 K86       0.132000
     65 H26         -6.7480    -2.3760     0.2310 ha         1 K86       0.136000
     66 H27         -4.8020    -3.4870     3.0540 h1         1 K86       0.040367
     67 H28         -6.1710    -2.5220     2.4770 h1         1 K86       0.040367
     68 H29         -5.6280    -3.9400     1.5520 h1         1 K86       0.040367
@<TRIPOS>BOND
     1     1    11 ar  
     2     1    15 ar  
     3     1    40 1   
     4     2    19 1   
     5     2    20 ar  
     6     2    23 ar  
     7     3    20 ar  
     8     3    21 ar  
     9     3    28 1   
    10     4    22 1   
    11     4    24 ar  
    12     4    27 ar  
    13     5    25 ar  
    14     5    26 ar  
    15     5    41 1   
    16     6    28 1   
    17     6    29 1   
    18     6    42 1   
    19     6    43 1   
    20     7     8 1   
    21     7    44 1   
    22     7    45 1   
    23     7    46 1   
    24     8     9 1   
    25     8    10 1   
    26     8    11 1   
    27     9    47 1   
    28     9    48 1   
    29     9    49 1   
    30    10    50 1   
    31    10    51 1   
    32    10    52 1   
    33    11    12 ar  
    34    12    13 ar  
    35    12    53 1   
    36    13    14 ar  
    37    13    54 1   
    38    14    15 ar  
    39    14    16 1   
    40    15    55 1   
    41    16    17 2   
    42    16    18 2   
    43    16    19 1   
    44    19    56 1   
    45    20    31 1   
    46    21    22 ar  
    47    22    23 ar  
    48    24    25 ar  
    49    25    57 1   
    50    26    27 ar  
    51    26    58 1   
    52    29    30 1   
    53    29    59 1   
    54    29    60 1   
    55    30    61 1   
    56    31    32 1   
    57    32    33 ar  
    58    32    37 ar  
    59    33    34 ar  
    60    33    62 1   
    61    34    35 ar  
    62    34    63 1   
    63    35    36 ar  
    64    35    64 1   
    65    36    37 ar  
    66    36    65 1   
    67    37    38 1   
    68    38    39 1   
    69    39    66 1   
    70    39    67 1   
    71    39    68 1   
@<TRIPOS>SUBSTRUCTURE
     1 K86         1 TEMP              0 ****  ****    0 ROOT
