@<TRIPOS>MOLECULE
K87
   87    91     1     0     0
SMALL
bcc


@<TRIPOS>ATOM
      1 S1          -4.6010    -1.0570     2.1560 sy         1 K87       1.324200
      2 C1          -4.6680    -0.1860     0.6280 ca         1 K87      -0.316500
      3 N1          -2.9980    -1.5620     2.2520 nu         1 K87      -0.798800
      4 O1          -4.8880    -0.1550     3.2480 o          1 K87      -0.589300
      5 O2          -5.3350    -2.3050     2.0400 o          1 K87      -0.589300
      6 C2          -4.8140    -0.9100    -0.5460 ca         1 K87      -0.020500
      7 C3          -4.5110     1.1940     0.6040 ca         1 K87      -0.020500
      8 C4          -1.9320    -0.7140     2.0520 ca         1 K87       0.717200
      9 C5          -4.8050    -0.2390    -1.7580 ca         1 K87      -0.159000
     10 C6          -4.4970     1.8400    -0.6180 ca         1 K87      -0.159000
     11 C7          -0.7420    -1.1960     1.5280 ca         1 K87      -0.219500
     12 N2          -2.0900     0.5680     2.3540 nb         1 K87      -0.743000
     13 C8          -4.6400     1.1440    -1.8220 ca         1 K87      -0.005300
     14 C9           0.2830    -0.2640     1.3610 ca         1 K87       0.703600
     15 O3          -0.5860    -2.5030     1.1980 os         1 K87      -0.197200
     16 C10         -1.0670     1.3690     2.1330 cp         1 K87       0.691000
     17 C11         -4.6020     1.9070    -3.1390 c3         1 K87      -0.009700
     18 N3           0.1200     1.0080     1.6710 nb         1 K87      -0.768000
     19 O4           1.4190    -0.6980     0.8560 os         1 K87      -0.423100
     20 C12         -0.8590    -2.8760    -0.0970 ca         1 K87       0.081100
     21 C13         -1.2710     2.8200     2.4140 cp         1 K87       0.599000
     22 C14         -4.7800     0.9900    -4.3490 c3         1 K87      -0.083433
     23 C15         -5.7310     2.9470    -3.1510 c3         1 K87      -0.083433
     24 C16         -3.2480     2.6200    -3.2620 c3         1 K87      -0.083433
     25 C17          2.4880     0.2400     0.6770 c3         1 K87       0.159400
     26 C18         -0.5450    -4.2080    -0.4090 ca         1 K87       0.127100
     27 C19         -1.4290    -2.0450    -1.0400 ca         1 K87      -0.165000
     28 N4          -0.1890     3.5850     2.4360 nb         1 K87      -0.655500
     29 N5          -2.5170     3.2290     2.6060 nb         1 K87      -0.655500
     30 C20          3.6060    -0.5190    -0.0030 c3         1 K87      -0.174400
     31 C21         -0.8140    -4.6760    -1.6880 ca         1 K87      -0.193000
     32 O5           0.0010    -4.9300     0.5840 os         1 K87      -0.295900
     33 C22         -1.6940    -2.5270    -2.3200 ca         1 K87      -0.137000
     34 C23         -0.3750     4.8770     2.6700 ca         1 K87       0.430700
     35 C24         -2.6940     4.5230     2.8310 ca         1 K87       0.430700
     36 C25          4.8170     0.3600    -0.2270 c          1 K87       0.672100
     37 C26         -1.3870    -3.8350    -2.6390 ca         1 K87      -0.116000
     38 C27          0.3270    -6.2820     0.3280 c3         1 K87       0.122700
     39 C28         -1.6350     5.4140     2.8750 ca         1 K87      -0.354600
     40 N6           5.8070    -0.2260    -0.9340 ns         1 K87      -0.499100
     41 O6           4.8920     1.5000     0.1990 o          1 K87      -0.582100
     42 C29          7.0460     0.4080    -1.2060 ca         1 K87       0.041600
     43 C30          7.1160     1.3880    -2.1990 ca         1 K87      -0.063300
     44 C31          8.1720     0.0140    -0.4790 ca         1 K87      -0.063300
     45 C32          8.3500     1.9830    -2.4490 ca         1 K87      -0.127500
     46 C33          5.9050     1.7900    -2.9870 c3         1 K87      -0.046800
     47 C34          9.3900     0.6250    -0.7620 ca         1 K87      -0.127500
     48 C35          8.0710    -1.0400     0.5840 c3         1 K87      -0.046800
     49 C36          9.4790     1.6070    -1.7370 ca         1 K87      -0.119000
     50 H1          -2.8690    -2.5450     2.0420 hn         1 K87       0.472800
     51 H2          -4.9330    -1.9850    -0.5330 ha         1 K87       0.168000
     52 H3          -4.3680     1.7590     1.5150 ha         1 K87       0.168000
     53 H4          -4.9250    -0.8230    -2.6600 ha         1 K87       0.135500
     54 H5          -4.3620     2.9140    -0.6240 ha         1 K87       0.135500
     55 H6          -5.7370     0.4670    -4.3310 hc         1 K87       0.037700
     56 H7          -4.7540     1.5850    -5.2630 hc         1 K87       0.037700
     57 H8          -3.9860     0.2440    -4.4250 hc         1 K87       0.037700
     58 H9          -5.6370     3.6610    -2.3340 hc         1 K87       0.037700
     59 H10         -5.7090     3.5100    -4.0860 hc         1 K87       0.037700
     60 H11         -6.7090     2.4690    -3.0710 hc         1 K87       0.037700
     61 H12         -2.4210     1.9080    -3.2350 hc         1 K87       0.037700
     62 H13         -3.1950     3.1620    -4.2080 hc         1 K87       0.037700
     63 H14         -3.0920     3.3440    -2.4610 hc         1 K87       0.037700
     64 H15          2.1500     1.0790     0.0690 h1         1 K87       0.074700
     65 H16          2.8000     0.6300     1.6470 h1         1 K87       0.074700
     66 H17         -1.6790    -1.0190    -0.8010 ha         1 K87       0.143000
     67 H18          3.9060    -1.3810     0.6010 hc         1 K87       0.072700
     68 H19          3.2670    -0.9170    -0.9620 hc         1 K87       0.072700
     69 H20         -0.5810    -5.6960    -1.9610 ha         1 K87       0.139000
     70 H21         -2.1420    -1.8700    -3.0540 ha         1 K87       0.134000
     71 H22          0.5090     5.5030     2.6950 h4         1 K87       0.031600
     72 H23         -3.7130     4.8580     2.9810 h4         1 K87       0.031600
     73 H24         -1.5890    -4.2180    -3.6310 ha         1 K87       0.133000
     74 H25          0.7430    -6.6780     1.2500 h1         1 K87       0.041700
     75 H26         -0.5550    -6.8690     0.0580 h1         1 K87       0.041700
     76 H27          1.0720    -6.3790    -0.4660 h1         1 K87       0.041700
     77 H28         -1.7830     6.4670     3.0590 ha         1 K87       0.156000
     78 H29          5.7000    -1.1950    -1.1980 hn         1 K87       0.320500
     79 H30          8.4250     2.7450    -3.2140 ha         1 K87       0.132000
     80 H31          5.2100     2.3700    -2.3790 hc         1 K87       0.044533
     81 H32          6.1860     2.4030    -3.8420 hc         1 K87       0.044533
     82 H33          5.3590     0.9220    -3.3590 hc         1 K87       0.044533
     83 H34         10.2730     0.3330    -0.2070 ha         1 K87       0.132000
     84 H35          7.7620    -2.0040     0.1750 hc         1 K87       0.044533
     85 H36          9.0320    -1.1850     1.0750 hc         1 K87       0.044533
     86 H37          7.3420    -0.7710     1.3510 hc         1 K87       0.044533
     87 H38         10.4310     2.0780    -1.9450 ha         1 K87       0.133000
@<TRIPOS>BOND
     1     1     2 1   
     2     1     3 1   
     3     1     4 2   
     4     1     5 2   
     5     2     6 ar  
     6     2     7 ar  
     7     3     8 1   
     8     3    50 1   
     9     6     9 ar  
    10     6    51 1   
    11     7    10 ar  
    12     7    52 1   
    13     8    11 ar  
    14     8    12 ar  
    15     9    13 ar  
    16     9    53 1   
    17    10    13 ar  
    18    10    54 1   
    19    11    14 ar  
    20    11    15 1   
    21    12    16 ar  
    22    13    17 1   
    23    14    18 ar  
    24    14    19 1   
    25    15    20 1   
    26    16    18 ar  
    27    16    21 1   
    28    17    22 1   
    29    17    23 1   
    30    17    24 1   
    31    19    25 1   
    32    20    26 ar  
    33    20    27 ar  
    34    21    28 ar  
    35    21    29 ar  
    36    22    55 1   
    37    22    56 1   
    38    22    57 1   
    39    23    58 1   
    40    23    59 1   
    41    23    60 1   
    42    24    61 1   
    43    24    62 1   
    44    24    63 1   
    45    25    30 1   
    46    25    64 1   
    47    25    65 1   
    48    26    31 ar  
    49    26    32 1   
    50    27    33 ar  
    51    27    66 1   
    52    28    34 ar  
    53    29    35 ar  
    54    30    36 1   
    55    30    67 1   
    56    30    68 1   
    57    31    37 ar  
    58    31    69 1   
    59    32    38 1   
    60    33    37 ar  
    61    33    70 1   
    62    34    39 ar  
    63    34    71 1   
    64    35    39 ar  
    65    35    72 1   
    66    36    40 1   
    67    36    41 2   
    68    37    73 1   
    69    38    74 1   
    70    38    75 1   
    71    38    76 1   
    72    39    77 1   
    73    40    42 1   
    74    40    78 1   
    75    42    43 ar  
    76    42    44 ar  
    77    43    45 ar  
    78    43    46 1   
    79    44    47 ar  
    80    44    48 1   
    81    45    49 ar  
    82    45    79 1   
    83    46    80 1   
    84    46    81 1   
    85    46    82 1   
    86    47    49 ar  
    87    47    83 1   
    88    48    84 1   
    89    48    85 1   
    90    48    86 1   
    91    49    87 1   
@<TRIPOS>SUBSTRUCTURE
     1 K87         1 TEMP              0 ****  ****    0 ROOT
