@<TRIPOS>MOLECULE
K87
   87    91     1     0     0
SMALL
No Charge or Current Charge


@<TRIPOS>ATOM
      1 S1          -5.1550    -0.5730     1.3210 sy         1 K87       1.182600
      2 C1          -4.3250     0.1560    -0.0950 ca         1 K87      -0.316500
      3 N1          -3.9070    -1.2040     2.2320 nu         1 K87      -0.854000
      4 O1          -5.7480     0.4650     2.1680 o          1 K87      -0.518500
      5 O2          -5.8890    -1.7710     0.9090 o          1 K87      -0.518500
      6 C2          -4.0490    -0.6190    -1.2360 ca         1 K87      -0.002500
      7 C3          -3.8960     1.4950    -0.0470 ca         1 K87      -0.002500
      8 C4          -2.7190    -0.5520     2.5080 ca         1 K87       0.388900
      9 C5          -3.3450    -0.0600    -2.3170 ca         1 K87      -0.141000
     10 C6          -3.1890     2.0460    -1.1270 ca         1 K87      -0.141000
     11 C7          -1.4890    -1.1300     2.1550 ca         1 K87      -0.088900
     12 N2          -2.7860     0.6640     3.0740 nb         1 K87      -0.217000
     13 C8          -2.8940     1.2830    -2.2800 ca         1 K87      -0.005300
     14 C9          -0.3260    -0.3770     2.4220 ca         1 K87       0.375300
     15 O3          -1.4430    -2.3570     1.5140 os         1 K87      -0.197200
     16 C10         -1.6300     1.3300     3.2920 cp         1 K87       0.165000
     17 C11         -2.0870     1.9310    -3.4380 c3         1 K87      -0.009700
     18 N3          -0.4050     0.8440     2.9870 nb         1 K87      -0.242000
     19 O4           0.9030    -0.9090     2.1040 os         1 K87      -0.446300
     20 C12         -0.7410    -2.5420     0.3370 ca         1 K87       0.081100
     21 C13         -1.7160     2.7280     3.8590 cp         1 K87       0.073000
     22 C14         -1.8330     0.9590    -4.6250 c3         1 K87      -0.083433
     23 C15         -2.8670     3.1570    -3.9840 c3         1 K87      -0.083433
     24 C16         -0.7080     2.3970    -2.8970 c3         1 K87      -0.083433
     25 C17          1.9360    -0.0780     1.5570 c3         1 K87       0.182600
     26 C18         -0.0860    -3.7710     0.0990 ca         1 K87       0.127100
     27 C19         -0.6720    -1.5070    -0.6200 ca         1 K87      -0.147000
     28 N4          -0.5570     3.4030     4.0640 nb         1 K87      -0.129500
     29 N5          -2.9470     3.2330     4.1190 nb         1 K87      -0.129500
     30 C20          3.0370    -1.0240     1.0560 c3         1 K87      -0.174400
     31 C21          0.6500    -3.9440    -1.0970 ca         1 K87      -0.175000
     32 O5          -0.1780    -4.7690     1.0550 os         1 K87      -0.319100
     33 C22          0.0580    -1.6900    -1.8040 ca         1 K87      -0.119000
     34 C23         -0.6330     4.6550     4.5560 ca         1 K87       0.102400
     35 C24         -3.0260     4.4860     4.6110 ca         1 K87       0.102400
     36 C25          4.0760    -0.2490     0.2530 c          1 K87       0.605100
     37 C26          0.7210    -2.9040    -2.0400 ca         1 K87      -0.098000
     38 C27          0.4730    -6.0420     0.9050 c3         1 K87       0.145900
     39 C28         -1.8720     5.2490     4.8500 ca         1 K87      -0.206000
     40 N6           4.0320    -0.4700    -1.1140 ns         1 K87      -0.173000
     41 O6           4.8800     0.5010     0.7930 o          1 K87      -0.582100
     42 C29          4.8640     0.0360    -2.1490 ca         1 K87      -0.051000
     43 C30          4.2540     0.7100    -3.2350 ca         1 K87      -0.063300
     44 C31          6.2720    -0.1500    -2.1360 ca         1 K87      -0.063300
     45 C32          5.0510     1.2250    -4.2750 ca         1 K87      -0.109500
     46 C33          2.7410     0.9010    -3.2920 c3         1 K87      -0.046800
     47 C34          7.0480     0.3780    -3.1860 ca         1 K87      -0.109500
     48 C35          6.9850    -0.9460    -1.0440 c3         1 K87      -0.046800
     49 C36          6.4430     1.0660    -4.2470 ca         1 K87      -0.101000
     50 H1          -3.7810    -2.1220     1.8340 hn         1 K87       0.528000
     51 H2          -4.3640    -1.6610    -1.2900 ha         1 K87       0.150000
     52 H3          -4.0940     2.1110     0.8300 ha         1 K87       0.150000
     53 H4          -3.1500    -0.7010    -3.1700 ha         1 K87       0.117500
     54 H5          -2.8640     3.0800    -1.0540 ha         1 K87       0.117500
     55 H6          -2.7780     0.6180    -5.0660 hc         1 K87       0.037700
     56 H7          -1.2590     1.4530    -5.4190 hc         1 K87       0.037700
     57 H8          -1.2610     0.0800    -4.3050 hc         1 K87       0.037700
     58 H9          -3.0020     3.9270    -3.2160 hc         1 K87       0.037700
     59 H10         -2.3340     3.6190    -4.8240 hc         1 K87       0.037700
     60 H11         -3.8610     2.8560    -4.3380 hc         1 K87       0.037700
     61 H12         -0.1690     1.5580    -2.4410 hc         1 K87       0.037700
     62 H13         -0.0850     2.8040    -3.7030 hc         1 K87       0.037700
     63 H14         -0.8140     3.1790    -2.1360 hc         1 K87       0.037700
     64 H15          1.5470     0.5100     0.7130 h1         1 K87       0.074700
     65 H16          2.3360     0.6160     2.3100 h1         1 K87       0.074700
     66 H17         -1.1810    -0.5620    -0.4470 ha         1 K87       0.125000
     67 H18          3.5220    -1.4830     1.9240 hc         1 K87       0.072700
     68 H19          2.5780    -1.7980     0.4280 hc         1 K87       0.072700
     69 H20          1.1710    -4.8730    -1.3110 ha         1 K87       0.121000
     70 H21          0.1070    -0.8920    -2.5390 ha         1 K87       0.116000
     71 H22          0.3050     5.1840     4.7150 h4         1 K87       0.031600
     72 H23         -4.0220     4.8770     4.8140 h4         1 K87       0.031600
     73 H24          1.2870    -3.0420    -2.9600 ha         1 K87       0.115000
     74 H25          0.2710    -6.6770     1.7770 h1         1 K87       0.041700
     75 H26          0.1080    -6.5640     0.0120 h1         1 K87       0.041700
     76 H27          1.5600    -5.9160     0.8220 h1         1 K87       0.041700
     77 H28         -1.9340     6.2590     5.2470 ha         1 K87       0.138000
     78 H29          3.2800    -1.0690    -1.4300 hn         1 K87       0.154000
     79 H30          4.5910     1.7510    -5.1090 ha         1 K87       0.114000
     80 H31          2.3650     1.3680    -2.3740 hc         1 K87       0.044533
     81 H32          2.4400     1.5420    -4.1300 hc         1 K87       0.044533
     82 H33          2.2320    -0.0620    -3.4180 hc         1 K87       0.044533
     83 H34          8.1280     0.2460    -3.1860 ha         1 K87       0.114000
     84 H35          6.3690    -1.7690    -0.6660 hc         1 K87       0.044533
     85 H36          7.9130    -1.3940    -1.4210 hc         1 K87       0.044533
     86 H37          7.2550    -0.3020    -0.1990 hc         1 K87       0.044533
     87 H38          7.0530     1.4670    -5.0540 ha         1 K87       0.115000
@<TRIPOS>BOND
     1     1     2 1   
     2     1     3 1   
     3     1     4 2   
     4     1     5 2   
     5     2     6 ar  
     6     2     7 ar  
     7     3     8 1   
     8     3    50 1   
     9     6     9 ar  
    10     6    51 1   
    11     7    10 ar  
    12     7    52 1   
    13     8    11 ar  
    14     8    12 ar  
    15     9    13 ar  
    16     9    53 1   
    17    10    13 ar  
    18    10    54 1   
    19    11    14 ar  
    20    11    15 1   
    21    12    16 ar  
    22    13    17 1   
    23    14    18 ar  
    24    14    19 1   
    25    15    20 1   
    26    16    18 ar  
    27    16    21 1   
    28    17    22 1   
    29    17    23 1   
    30    17    24 1   
    31    19    25 1   
    32    20    26 ar  
    33    20    27 ar  
    34    21    28 ar  
    35    21    29 ar  
    36    22    55 1   
    37    22    56 1   
    38    22    57 1   
    39    23    58 1   
    40    23    59 1   
    41    23    60 1   
    42    24    61 1   
    43    24    62 1   
    44    24    63 1   
    45    25    30 1   
    46    25    64 1   
    47    25    65 1   
    48    26    31 ar  
    49    26    32 1   
    50    27    33 ar  
    51    27    66 1   
    52    28    34 ar  
    53    29    35 ar  
    54    30    36 1   
    55    30    67 1   
    56    30    68 1   
    57    31    37 ar  
    58    31    69 1   
    59    32    38 1   
    60    33    37 ar  
    61    33    70 1   
    62    34    39 ar  
    63    34    71 1   
    64    35    39 ar  
    65    35    72 1   
    66    36    40 1   
    67    36    41 2   
    68    37    73 1   
    69    38    74 1   
    70    38    75 1   
    71    38    76 1   
    72    39    77 1   
    73    40    42 1   
    74    40    78 1   
    75    42    43 ar  
    76    42    44 ar  
    77    43    45 ar  
    78    43    46 1   
    79    44    47 ar  
    80    44    48 1   
    81    45    49 ar  
    82    45    79 1   
    83    46    80 1   
    84    46    81 1   
    85    46    82 1   
    86    47    49 ar  
    87    47    83 1   
    88    48    84 1   
    89    48    85 1   
    90    48    86 1   
    91    49    87 1   
@<TRIPOS>SUBSTRUCTURE
     1 K87         1 TEMP              0 ****  ****    0 ROOT
