@<TRIPOS>MOLECULE
K88
   47    50     1     0     0
SMALL
No Charge or Current Charge


@<TRIPOS>ATOM
      1 CAC         -5.6550    -0.5520     1.6920 c3         1 K88       0.166600
      2 NAA         -5.0030    -1.5960     0.8710 n3         1 K88      -0.697500
      3 CAD         -3.8830    -2.2430     1.5880 c3         1 K88       0.166600
      4 SAB         -4.6280    -1.1050    -0.7230 sy         1 K88       1.149600
      5 OAE         -3.9990    -2.2620    -1.3690 o          1 K88      -0.535500
      6 OAF         -5.8590    -0.5230    -1.2710 o          1 K88      -0.535500
      7 CAG         -3.4030     0.1900    -0.4760 ca         1 K88      -0.339500
      8 CAH         -2.0270    -0.1480    -0.4280 ca         1 K88       0.025000
      9 CAI         -1.1000     0.8880    -0.2330 ca         1 K88      -0.106800
     10 CAL         -3.8200     1.5420    -0.3420 ca         1 K88       0.013000
     11 CAK         -2.8690     2.5650    -0.1470 ca         1 K88      -0.166000
     12 CAJ         -1.5240     2.1960    -0.0970 ca         1 K88       0.104600
     13 NAO         -0.3890     2.9760     0.0800 ns         1 K88      -0.390100
     14 CAN          0.7900     2.2850     0.0750 c          1 K88       0.587200
     15 OAZ          1.9040     2.7690     0.2140 o          1 K88      -0.577000
     16 CAM          0.3640     0.8690    -0.1330 cc         1 K88      -0.222400
     17 CAP          1.1570    -0.2480    -0.2190 cf         1 K88       0.039800
     18 CAQ          2.6140    -0.4100    -0.1370 cd         1 K88      -0.234800
     19 CAR          3.3110    -1.5870    -0.2370 cc         1 K88      -0.096000
     20 CAS          4.6850    -1.3210    -0.1080 cc         1 K88      -0.170300
     21 CAV          5.7890    -2.3480    -0.1520 c6         1 K88       0.002900
     22 CAW          7.1590    -1.6400    -0.3500 c6         1 K88      -0.075400
     23 CAX          7.3010    -0.3830     0.5560 c6         1 K88      -0.069400
     24 CAY          6.2100     0.6810     0.2440 c6         1 K88      -0.016100
     25 CAT          4.8630     0.0160     0.0780 cd         1 K88      -0.113300
     26 NAU          3.5860     0.5870     0.0580 na         1 K88      -0.061000
     27 HAC1        -4.9720     0.2860     1.8860 h1         1 K88       0.053033
     28 HAC2        -6.5540    -0.1590     1.1990 h1         1 K88       0.053033
     29 HAC3        -5.9670    -0.9620     2.6610 h1         1 K88       0.053033
     30 HAD1        -4.2190    -2.6280     2.5600 h1         1 K88       0.053033
     31 HAD2        -3.4830    -3.0940     1.0210 h1         1 K88       0.053033
     32 HAD3        -3.0650    -1.5350     1.7720 h1         1 K88       0.053033
     33 HAH         -1.6980    -1.1790    -0.5370 ha         1 K88       0.137000
     34 HAL         -4.8770     1.8020    -0.3850 ha         1 K88       0.136000
     35 HAK         -3.1730     3.6030    -0.0400 ha         1 K88       0.126000
     36 HAO         -0.4220     3.9800     0.2040 hn         1 K88       0.343500
     37 HAP          0.6100    -1.1790    -0.3740 ha         1 K88       0.187000
     38 HAR          2.8880    -2.5770    -0.3910 ha         1 K88       0.132000
     39 HAU          3.3770     1.5790     0.1660 hn         1 K88       0.395000
     40 HAV1         5.8050    -2.9200     0.7850 hc         1 K88       0.046200
     41 HAV2         5.6250    -3.0750    -0.9590 hc         1 K88       0.046200
     42 HAW1         7.9750    -2.3470    -0.1440 hc         1 K88       0.043200
     43 HAW2         7.2670    -1.3400    -1.4020 hc         1 K88       0.043200
     44 HAX1         7.2230    -0.6860     1.6100 hc         1 K88       0.044700
     45 HAX2         8.2980     0.0610     0.4340 hc         1 K88       0.044700
     46 HAY1         6.1820     1.4340     1.0430 hc         1 K88       0.055700
     47 HAY2         6.4740     1.2140    -0.6790 hc         1 K88       0.055700
@<TRIPOS>BOND
     1     1     2 1   
     2     1    27 1   
     3     1    28 1   
     4     1    29 1   
     5     2     3 1   
     6     2     4 1   
     7     3    30 1   
     8     3    31 1   
     9     3    32 1   
    10     4     5 2   
    11     4     6 2   
    12     4     7 1   
    13     7     8 ar  
    14     7    10 ar  
    15     8     9 ar  
    16     8    33 1   
    17     9    12 ar  
    18     9    16 1   
    19    10    11 ar  
    20    10    34 1   
    21    11    12 ar  
    22    11    35 1   
    23    12    13 1   
    24    13    14 1   
    25    13    36 1   
    26    14    15 2   
    27    14    16 1   
    28    16    17 2   
    29    17    18 1   
    30    17    37 1   
    31    18    19 2   
    32    18    26 1   
    33    19    20 1   
    34    19    38 1   
    35    20    21 1   
    36    20    25 2   
    37    21    22 1   
    38    21    40 1   
    39    21    41 1   
    40    22    23 1   
    41    22    42 1   
    42    22    43 1   
    43    23    24 1   
    44    23    44 1   
    45    23    45 1   
    46    24    25 1   
    47    24    46 1   
    48    24    47 1   
    49    25    26 1   
    50    26    39 1   
@<TRIPOS>SUBSTRUCTURE
     1 K88         1 TEMP              0 ****  ****    0 ROOT
