@<TRIPOS>MOLECULE
K88
   47    50     1     0     0
SMALL
abcg2


@<TRIPOS>ATOM
      1 CAC         -5.6990    -0.5170     1.6720 c3         1 K88       0.166600
      2 NAA         -4.9660    -1.5060     0.8900 n3         1 K88      -0.697500
      3 CAD         -3.9440    -2.2120     1.6530 c3         1 K88       0.166600
      4 SAB         -4.5360    -1.0440    -0.6430 sy         1 K88       1.149600
      5 OAE         -3.9190    -2.2000    -1.2730 o          1 K88      -0.535500
      6 OAF         -5.7150    -0.4470    -1.2490 o          1 K88      -0.535500
      7 CAG         -3.3060     0.2120    -0.4720 ca         1 K88      -0.339500
      8 CAH         -1.9620    -0.1590    -0.4210 ca         1 K88       0.025000
      9 CAI         -1.0170     0.8310    -0.2320 ca         1 K88      -0.106800
     10 CAL         -3.7060     1.5410    -0.3460 ca         1 K88       0.013000
     11 CAK         -2.7610     2.5400    -0.1570 ca         1 K88      -0.166000
     12 CAJ         -1.4310     2.1670    -0.1010 ca         1 K88       0.104600
     13 NAO         -0.3150     2.9500     0.0740 ns         1 K88      -0.390100
     14 CAN          0.8400     2.2110     0.0650 c          1 K88       0.587200
     15 OAZ          1.9590     2.6970     0.2020 o          1 K88      -0.577000
     16 CAM          0.4310     0.8130    -0.1370 cc         1 K88      -0.222400
     17 CAP          1.2170    -0.3020    -0.2290 cf         1 K88       0.039800
     18 CAQ          2.6100    -0.4840    -0.1540 cd         1 K88      -0.234800
     19 CAR          3.3000    -1.6980    -0.2750 cc         1 K88      -0.096000
     20 CAS          4.6600    -1.4300    -0.1380 cc         1 K88      -0.170300
     21 CAV          5.8510    -2.3350    -0.1800 c6         1 K88       0.002900
     22 CAW          7.1300    -1.5190    -0.3760 c6         1 K88      -0.075400
     23 CAX          7.1770    -0.3130     0.5600 c6         1 K88      -0.069400
     24 CAY          6.0570     0.6830     0.2490 c6         1 K88      -0.016100
     25 CAT          4.7790    -0.0550     0.0660 cd         1 K88      -0.113300
     26 NAU          3.5560     0.4910     0.0520 na         1 K88      -0.061000
     27 HAC1        -5.0660     0.3090     2.0140 h1         1 K88       0.053033
     28 HAC2        -6.5360    -0.1190     1.1060 h1         1 K88       0.053033
     29 HAC3        -6.1000    -1.0220     2.5490 h1         1 K88       0.053033
     30 HAD1        -4.4280    -2.6660     2.5160 h1         1 K88       0.053033
     31 HAD2        -3.5030    -3.0110     1.0640 h1         1 K88       0.053033
     32 HAD3        -3.1510    -1.5500     2.0160 h1         1 K88       0.053033
     33 HAH         -1.6680    -1.1940    -0.5380 ha         1 K88       0.137000
     34 HAL         -4.7520     1.8110    -0.4050 ha         1 K88       0.136000
     35 HAK         -3.0630     3.5740    -0.0630 ha         1 K88       0.126000
     36 HAO         -0.3260     3.9530     0.1820 hn         1 K88       0.343500
     37 HAP          0.6870    -1.2350    -0.3950 ha         1 K88       0.187000
     38 HAR          2.8360    -2.6590    -0.4470 ha         1 K88       0.132000
     39 HAU          3.3050     1.4730     0.1640 hn         1 K88       0.395000
     40 HAV1         5.9200    -2.9070     0.7520 hc         1 K88       0.046200
     41 HAV2         5.7460    -3.0720    -0.9790 hc         1 K88       0.046200
     42 HAW1         8.0010    -2.1560    -0.2120 hc         1 K88       0.043200
     43 HAW2         7.1880    -1.1710    -1.4120 hc         1 K88       0.043200
     44 HAX1         7.0860    -0.6540     1.5960 hc         1 K88       0.044700
     45 HAX2         8.1410     0.1920     0.4810 hc         1 K88       0.044700
     46 HAY1         5.9650     1.4290     1.0420 hc         1 K88       0.055700
     47 HAY2         6.2950     1.2340    -0.6670 hc         1 K88       0.055700
@<TRIPOS>BOND
     1     1     2 1   
     2     1    27 1   
     3     1    28 1   
     4     1    29 1   
     5     2     3 1   
     6     2     4 1   
     7     3    30 1   
     8     3    31 1   
     9     3    32 1   
    10     4     5 2   
    11     4     6 2   
    12     4     7 1   
    13     7     8 ar  
    14     7    10 ar  
    15     8     9 ar  
    16     8    33 1   
    17     9    12 ar  
    18     9    16 1   
    19    10    11 ar  
    20    10    34 1   
    21    11    12 ar  
    22    11    35 1   
    23    12    13 1   
    24    13    14 1   
    25    13    36 1   
    26    14    15 2   
    27    14    16 1   
    28    16    17 2   
    29    17    18 1   
    30    17    37 1   
    31    18    19 2   
    32    18    26 1   
    33    19    20 1   
    34    19    38 1   
    35    20    21 1   
    36    20    25 2   
    37    21    22 1   
    38    21    40 1   
    39    21    41 1   
    40    22    23 1   
    41    22    42 1   
    42    22    43 1   
    43    23    24 1   
    44    23    44 1   
    45    23    45 1   
    46    24    25 1   
    47    24    46 1   
    48    24    47 1   
    49    25    26 1   
    50    26    39 1   
@<TRIPOS>SUBSTRUCTURE
     1 K88         1 TEMP              0 ****  ****    0 ROOT
