@<TRIPOS>MOLECULE
K89
   45    47     1     0     0
SMALL
abcg2


@<TRIPOS>ATOM
      1 C10         -3.7430     0.2320     0.2520 ca         1 K89       0.020000
      2 C12         -5.9440     1.1000     0.6300 ca         1 K89       0.189000
      3 C15         -4.2040    -0.4380    -0.8800 ca         1 K89      -0.188500
      4 O20          3.0150    -2.7430    -0.4670 o          1 K89      -0.527000
      5 C23          5.7220    -0.0640    -0.0420 c6         1 K89       0.218800
      6 C24          5.4920     1.4420    -0.0340 c6         1 K89      -0.120900
      7 C25          5.0200     1.9330    -1.3920 c6         1 K89       0.176300
      8 C27          4.0660    -0.3350    -1.8470 c6         1 K89       0.218800
      9 C01          0.1680     0.8940     1.7680 ca         1 K89      -0.012000
     10 C02          1.3970     1.0130     2.3930 ca         1 K89      -0.181000
     11 C03          2.4370     0.2050     1.9820 ca         1 K89       0.290000
     12 C04          2.2770    -0.7170     0.9550 ca         1 K89      -0.345500
     13 C05          1.0420    -0.8200     0.3340 ca         1 K89       0.063000
     14 C06         -0.0250    -0.0270     0.7420 ca         1 K89      -0.199600
     15 C07         -1.3160    -0.1840     0.0070 c          1 K89       0.628700
     16 O08         -1.3380    -0.6040    -1.1340 o          1 K89      -0.564100
     17 N09         -2.4250     0.1610     0.7090 ns         1 K89      -0.146000
     18 C11         -4.6240     1.0050     1.0080 ca         1 K89      -0.188500
     19 C13         -6.4190     0.4540    -0.4960 ca         1 K89       0.063000
     20 C14         -5.5320    -0.3070    -1.2320 ca         1 K89       0.189000
     21 F16         -5.9920    -0.9460    -2.3080 f          1 K89      -0.151500
     22 F17         -7.6980     0.5540    -0.8550 f          1 K89      -0.142000
     23 F18         -6.7880     1.8440     1.3430 f          1 K89      -0.151500
     24 O21          4.4030    -2.1530     1.5370 o          1 K89      -0.527000
     25 N22          4.5720    -0.8050    -0.5570 n3         1 K89      -0.775500
     26 C26          3.7790     1.1590    -1.8190 c6         1 K89      -0.120900
     27 F29          3.6170     0.3290     2.5830 f          1 K89      -0.149000
     28 H1          -3.5630    -1.0600    -1.4840 ha         1 K89       0.154000
     29 H2           6.5690    -0.3050    -0.6900 h1         1 K89       0.070200
     30 H3           5.9820    -0.4230     0.9500 h1         1 K89       0.070200
     31 H4           4.7470     1.7060     0.7220 hc         1 K89       0.060200
     32 H5           6.4270     1.9320     0.2470 hc         1 K89       0.060200
     33 H6           5.8160     1.7290    -2.1260 h1         1 K89       0.032700
     34 H7           4.8310    -0.5560    -2.5980 h1         1 K89       0.070200
     35 H8           3.1800    -0.8980    -2.1330 h1         1 K89       0.070200
     36 H9          -0.6280     1.5520     2.0920 ha         1 K89       0.119000
     37 H10          1.5510     1.7340     3.1830 ha         1 K89       0.144000
     38 H11          0.9040    -1.5310    -0.4690 ha         1 K89       0.166000
     39 H12         -2.3030     0.4130     1.6780 hn         1 K89       0.160000
     40 H13         -4.2870     1.5380     1.8880 ha         1 K89       0.154000
     41 H14          2.9580     1.3720    -1.1270 hc         1 K89       0.060200
     42 H15          3.4530     1.4700    -2.8150 hc         1 K89       0.060200
     43 S19          3.6270    -1.7360     0.3850 sy         1 K89       1.192600
     44 O28          4.7830     3.3190    -1.2950 oh         1 K89      -0.656000
     45 H16          4.5080     3.6400    -2.1600 ho         1 K89       0.446000
@<TRIPOS>BOND
     1     1     3 ar  
     2     1    17 1   
     3     1    18 ar  
     4     2    18 ar  
     5     2    19 ar  
     6     2    23 1   
     7     3    20 ar  
     8     3    28 1   
     9     4    43 2   
    10     5     6 1   
    11     5    25 1   
    12     5    29 1   
    13     5    30 1   
    14     6     7 1   
    15     6    31 1   
    16     6    32 1   
    17     7    26 1   
    18     7    33 1   
    19     7    44 1   
    20     8    25 1   
    21     8    26 1   
    22     8    34 1   
    23     8    35 1   
    24     9    10 ar  
    25     9    14 ar  
    26     9    36 1   
    27    10    11 ar  
    28    10    37 1   
    29    11    12 ar  
    30    11    27 1   
    31    12    13 ar  
    32    12    43 1   
    33    13    14 ar  
    34    13    38 1   
    35    14    15 1   
    36    15    16 2   
    37    15    17 1   
    38    17    39 1   
    39    18    40 1   
    40    19    20 ar  
    41    19    22 1   
    42    20    21 1   
    43    24    43 2   
    44    25    43 1   
    45    26    41 1   
    46    26    42 1   
    47    44    45 1   
@<TRIPOS>SUBSTRUCTURE
     1 K89         1 TEMP              0 ****  ****    0 ROOT
