@<TRIPOS>MOLECULE
K89
   45    47     1     0     0
SMALL
No Charge or Current Charge


@<TRIPOS>ATOM
      1 C10         -4.1350    -0.2110    -0.0550 ca         1 K89       0.020000
      2 C12         -6.5170     0.3270     0.0910 ca         1 K89       0.189000
      3 C15         -4.4350    -1.1680    -1.0520 ca         1 K89      -0.188500
      4 O20          3.3760    -2.1370     0.7950 o          1 K89      -0.527000
      5 C23          5.1370    -0.7130    -1.3190 c6         1 K89       0.218800
      6 C24          6.4280     0.0600    -0.9520 c6         1 K89      -0.120900
      7 C25          6.2690     1.5680    -1.2480 c6         1 K89       0.176300
      8 C27          3.7600     1.3020    -0.9410 c6         1 K89       0.218800
      9 C01         -0.5150     1.1850     1.7250 ca         1 K89      -0.012000
     10 C02          0.6230     1.7200     2.3480 ca         1 K89      -0.181000
     11 C03          1.8890     1.1640     2.1250 ca         1 K89       0.290000
     12 C04          2.0260     0.0560     1.2710 ca         1 K89      -0.345500
     13 C05          0.8870    -0.4800     0.6370 ca         1 K89       0.063000
     14 C06         -0.3950     0.0740     0.8560 ca         1 K89      -0.199600
     15 C07         -1.5910    -0.5380     0.1530 c          1 K89       0.628700
     16 O08         -1.4560    -1.5020    -0.5900 o          1 K89      -0.564100
     17 N09         -2.8200     0.0570     0.4140 ns         1 K89      -0.146000
     18 C11         -5.1910     0.5340     0.5070 ca         1 K89      -0.188500
     19 C13         -6.8090    -0.6280    -0.8960 ca         1 K89       0.063000
     20 C14         -5.7620    -1.3720    -1.4650 ca         1 K89       0.189000
     21 F16         -6.0250    -2.2930    -2.4200 f          1 K89      -0.151500
     22 F17         -8.0880    -0.8280    -1.2970 f          1 K89      -0.142000
     23 F18         -7.5100     1.0550     0.6500 f          1 K89      -0.151500
     24 O21          4.6600    -0.1710     1.8180 o          1 K89      -0.527000
     25 N22          3.9400    -0.1450    -0.6490 n3         1 K89      -0.775500
     26 C26          5.0090     2.1280    -0.5490 c6         1 K89      -0.120900
     27 F29          2.9510     1.7320     2.7350 f          1 K89      -0.149000
     28 H1          -3.6600    -1.7610    -1.5250 ha         1 K89       0.154000
     29 H2           5.0050    -0.6570    -2.4100 h1         1 K89       0.070200
     30 H3           5.2620    -1.7790    -1.0800 h1         1 K89       0.070200
     31 H4           6.6740    -0.0950     0.1070 hc         1 K89       0.060200
     32 H5           7.2710    -0.3450    -1.5270 hc         1 K89       0.060200
     33 H6           6.1460     1.6920    -2.3350 h1         1 K89       0.032700
     34 H7           3.5930     1.4340    -2.0210 h1         1 K89       0.070200
     35 H8           2.8710     1.7200    -0.4500 h1         1 K89       0.070200
     36 H9          -1.4770     1.6500     1.9270 ha         1 K89       0.119000
     37 H10          0.5260     2.5780     3.0080 ha         1 K89       0.144000
     38 H11          1.0010    -1.3310    -0.0360 ha         1 K89       0.166000
     39 H12         -2.7730     0.8320     1.0610 hn         1 K89       0.160000
     40 H13         -4.9890     1.2790     1.2730 ha         1 K89       0.154000
     41 H14          5.1410     2.1200     0.5400 hc         1 K89       0.060200
     42 H15          4.8550     3.1760    -0.8360 hc         1 K89       0.060200
     43 S19          3.6170    -0.6970     0.9340 sy         1 K89       1.192600
     44 O28          7.4320     2.2760    -0.8120 oh         1 K89      -0.656000
     45 H16          7.3110     3.2120    -1.0830 ho         1 K89       0.446000
@<TRIPOS>BOND
     1     1     3 ar  
     2     1    17 1   
     3     1    18 ar  
     4     2    18 ar  
     5     2    19 ar  
     6     2    23 1   
     7     3    20 ar  
     8     3    28 1   
     9     4    43 2   
    10     5     6 1   
    11     5    25 1   
    12     5    29 1   
    13     5    30 1   
    14     6     7 1   
    15     6    31 1   
    16     6    32 1   
    17     7    26 1   
    18     7    33 1   
    19     7    44 1   
    20     8    25 1   
    21     8    26 1   
    22     8    34 1   
    23     8    35 1   
    24     9    10 ar  
    25     9    14 ar  
    26     9    36 1   
    27    10    11 ar  
    28    10    37 1   
    29    11    12 ar  
    30    11    27 1   
    31    12    13 ar  
    32    12    43 1   
    33    13    14 ar  
    34    13    38 1   
    35    14    15 1   
    36    15    16 2   
    37    15    17 1   
    38    17    39 1   
    39    18    40 1   
    40    19    20 ar  
    41    19    22 1   
    42    20    21 1   
    43    24    43 2   
    44    25    43 1   
    45    26    41 1   
    46    26    42 1   
    47    44    45 1   
@<TRIPOS>SUBSTRUCTURE
     1 K89         1 TEMP              0 ****  ****    0 ROOT
