@<TRIPOS>MOLECULE
K8A
   16    17     1     0     0
SMALL
No Charge or Current Charge


@<TRIPOS>ATOM
      1 C1          -2.4820     0.0320    -0.0000 cc         1 K8A       0.556500
      2 N2          -4.5110     0.3180     0.0020 na         1 K8A       0.115600
      3 N3          -3.5790    -0.6900     0.0200 nd         1 K8A      -0.513800
      4 N4          -3.9580     1.5730    -0.0280 nd         1 K8A      -0.164800
      5 N5          -2.6700     1.3820    -0.0290 nc         1 K8A      -0.378000
      6 C6          -1.1350    -0.5400     0.0070 ca         1 K8A      -0.179500
      7 N7           0.2470    -2.5440     0.0450 nb         1 K8A      -0.669000
      8 C8           0.0220     0.2710    -0.0160 ca         1 K8A      -0.012000
      9 C9          -0.9660    -1.9380     0.0370 ca         1 K8A       0.380900
     10 C10          1.2790    -0.3530    -0.0070 ca         1 K8A      -0.091900
     11 Br1          2.8780     0.6980    -0.0370 br         1 K8A      -0.068100
     12 C12          1.3480    -1.7570     0.0230 ca         1 K8A       0.380900
     13 H1          -5.5200     0.1630     0.0090 hn         1 K8A       0.410000
     14 H2          -0.0440     1.3570    -0.0400 ha         1 K8A       0.155000
     15 H3          -1.8230    -2.6110     0.0550 h4         1 K8A       0.038100
     16 H4           2.3110    -2.2660     0.0300 h4         1 K8A       0.038100
@<TRIPOS>BOND
     1     1     3 2   
     2     1     5 1   
     3     1     6 1   
     4     2     3 1   
     5     2     4 1   
     6     2    13 1   
     7     4     5 2   
     8     6     8 ar  
     9     6     9 ar  
    10     7     9 ar  
    11     7    12 ar  
    12     8    10 ar  
    13     8    14 1   
    14     9    15 1   
    15    10    11 1   
    16    10    12 ar  
    17    12    16 1   
@<TRIPOS>SUBSTRUCTURE
     1 K8A         1 TEMP              0 ****  ****    0 ROOT
