@<TRIPOS>MOLECULE
K8A
   16    17     1     0     0
SMALL
bcc


@<TRIPOS>ATOM
      1 C1          -2.4490     0.0510    -0.0050 cc         1 K8A       0.556500
      2 N2          -4.4630     0.3180     0.0090 na         1 K8A       0.165900
      3 N3          -3.5750    -0.6350     0.0340 nd         1 K8A      -0.513800
      4 N4          -3.9680     1.5160    -0.0410 nd         1 K8A      -0.164800
      5 N5          -2.6850     1.3740    -0.0510 nc         1 K8A      -0.378000
      6 C6          -1.1190    -0.5440     0.0030 ca         1 K8A      -0.244800
      7 N7           0.2400    -2.5070     0.0400 nb         1 K8A      -0.669000
      8 C8           0.0160     0.2590    -0.0140 ca         1 K8A      -0.030000
      9 C9          -0.9480    -1.9260     0.0300 ca         1 K8A       0.446200
     10 C10          1.2520    -0.3610    -0.0040 ca         1 K8A      -0.157200
     11 BR1          2.8290     0.6580    -0.0260 br         1 K8A      -0.068100
     12 C12          1.3260    -1.7480     0.0240 ca         1 K8A       0.446200
     13 H1          -5.4600     0.1440     0.0290 hn         1 K8A       0.359700
     14 H2          -0.0730     1.3370    -0.0350 ha         1 K8A       0.173000
     15 H3          -1.8090    -2.5840     0.0430 h4         1 K8A       0.038100
     16 H4           2.2830    -2.2570     0.0340 h4         1 K8A       0.038100
@<TRIPOS>BOND
     1     1     3 2   
     2     1     5 1   
     3     1     6 1   
     4     2     3 1   
     5     2     4 1   
     6     2    13 1   
     7     4     5 2   
     8     6     8 ar  
     9     6     9 ar  
    10     7     9 ar  
    11     7    12 ar  
    12     8    10 ar  
    13     8    14 1   
    14     9    15 1   
    15    10    11 1   
    16    10    12 ar  
    17    12    16 1   
@<TRIPOS>SUBSTRUCTURE
     1 K8A         1 TEMP              0 ****  ****    0 ROOT
