@<TRIPOS>MOLECULE
K8B
   49    50     1     0     0
SMALL
bcc


@<TRIPOS>ATOM
      1 CAB          6.7560     1.0420    -1.2140 c3         1 K8B      -0.084100
      2 CAR          6.2960    -0.2290    -0.5000 c3         1 K8B      -0.016400
      3 CAC          7.1520    -0.4910     0.7400 c3         1 K8B      -0.084100
      4 CAQ          4.8280    -0.1810    -0.1470 ca         1 K8B      -0.074300
      5 CAI          3.9580    -1.1820    -0.5710 ca         1 K8B      -0.123500
      6 CAG          2.6100    -1.1560    -0.2380 ca         1 K8B      -0.125500
      7 CAH          4.2980     0.8500     0.6260 ca         1 K8B      -0.123500
      8 CAF          2.9500     0.8790     0.9550 ca         1 K8B      -0.125500
      9 CAP          2.0810    -0.1230     0.5310 ca         1 K8B      -0.081300
     10 CAJ          0.6140    -0.0760     0.8610 c3         1 K8B      -0.029100
     11 CAK         -0.2390     0.2980    -0.3530 c3         1 K8B      -0.069400
     12 CAS         -1.7230     0.4720    -0.0450 c6         1 K8B      -0.061700
     13 CAM         -2.4830     0.9780    -1.2680 c6         1 K8B      -0.078400
     14 CAO         -3.9600     1.1540    -0.9650 c6         1 K8B       0.198300
     15 CAL         -2.3870    -0.8130     0.4420 c6         1 K8B      -0.078400
     16 CAN         -3.8750    -0.6230     0.6970 c6         1 K8B       0.198300
     17 NAT         -4.5460    -0.0790    -0.4630 nh         1 K8B      -0.646400
     18 CAE         -5.9270    -0.1340    -0.4960 c2         1 K8B       0.046000
     19 CAD         -6.7610    -0.7130     0.3770 c2         1 K8B      -0.270200
     20 CAA         -8.2400    -0.7900     0.1570 c3         1 K8B      -0.033900
     21 H1           7.7910     0.9410    -1.5450 hc         1 K8B       0.034533
     22 H2           6.1440     1.2540    -2.0910 hc         1 K8B       0.034533
     23 H3           6.7100     1.9110    -0.5540 hc         1 K8B       0.034533
     24 H4           6.4370    -1.0680    -1.1890 hc         1 K8B       0.048700
     25 H5           7.0570     0.3240     1.4600 hc         1 K8B       0.034533
     26 H6           6.8580    -1.4160     1.2380 hc         1 K8B       0.034533
     27 H7           8.2070    -0.5750     0.4710 hc         1 K8B       0.034533
     28 H8           4.3410    -2.0020    -1.1680 ha         1 K8B       0.128000
     29 H9           1.9630    -1.9540    -0.5850 ha         1 K8B       0.127500
     30 H10          4.9400     1.6470     0.9860 ha         1 K8B       0.128000
     31 H11          2.5670     1.6980     1.5550 ha         1 K8B       0.127500
     32 H12          0.2980    -1.0460     1.2520 hc         1 K8B       0.045700
     33 H13          0.4440     0.6530     1.6580 hc         1 K8B       0.045700
     34 H14          0.1440     1.2330    -0.7760 hc         1 K8B       0.044200
     35 H15         -0.1190    -0.4630    -1.1330 hc         1 K8B       0.044200
     36 H16         -1.8260     1.2270     0.7480 hc         1 K8B       0.044700
     37 H17         -2.0720     1.9330    -1.6040 hc         1 K8B       0.048200
     38 H18         -2.3630     0.2660    -2.0930 hc         1 K8B       0.048200
     39 H19         -4.0830     1.9710    -0.2360 h1         1 K8B       0.035450
     40 H20         -4.4990     1.4510    -1.8670 h1         1 K8B       0.035450
     41 H21         -2.2450    -1.5980    -0.3100 hc         1 K8B       0.048200
     42 H22         -1.9240    -1.1690     1.3640 hc         1 K8B       0.048200
     43 H23         -4.3230    -1.5880     0.9400 h1         1 K8B       0.035450
     44 H24         -4.0200     0.0250     1.5770 h1         1 K8B       0.035450
     45 H25         -6.3470     0.3430    -1.3790 h4         1 K8B       0.126000
     46 H26         -6.3830    -1.1700     1.2850 ha         1 K8B       0.119000
     47 H27         -8.5860    -1.8230     0.0600 hc         1 K8B       0.030700
     48 H28         -8.7950    -0.3570     0.9920 hc         1 K8B       0.030700
     49 H29         -8.5410    -0.2610    -0.7490 hc         1 K8B       0.030700
@<TRIPOS>BOND
     1     1     2 1   
     2     1    21 1   
     3     1    22 1   
     4     1    23 1   
     5     2     3 1   
     6     2     4 1   
     7     2    24 1   
     8     3    25 1   
     9     3    26 1   
    10     3    27 1   
    11     4     5 ar  
    12     4     7 ar  
    13     5     6 ar  
    14     5    28 1   
    15     6     9 ar  
    16     6    29 1   
    17     7     8 ar  
    18     7    30 1   
    19     8     9 ar  
    20     8    31 1   
    21     9    10 1   
    22    10    11 1   
    23    10    32 1   
    24    10    33 1   
    25    11    12 1   
    26    11    34 1   
    27    11    35 1   
    28    12    13 1   
    29    12    15 1   
    30    12    36 1   
    31    13    14 1   
    32    13    37 1   
    33    13    38 1   
    34    14    17 1   
    35    14    39 1   
    36    14    40 1   
    37    15    16 1   
    38    15    41 1   
    39    15    42 1   
    40    16    17 1   
    41    16    43 1   
    42    16    44 1   
    43    17    18 1   
    44    18    19 2   
    45    18    45 1   
    46    19    20 1   
    47    19    46 1   
    48    20    47 1   
    49    20    48 1   
    50    20    49 1   
@<TRIPOS>SUBSTRUCTURE
     1 K8B         1 TEMP              0 ****  ****    0 ROOT
