@<TRIPOS>MOLECULE
K8B
   49    50     1     0     0
SMALL
No Charge or Current Charge


@<TRIPOS>ATOM
      1 CAB          6.7320     0.9190    -1.4330 c3         1 K8B      -0.084100
      2 CAR          6.3800    -0.2290    -0.4600 c3         1 K8B      -0.016400
      3 CAC          7.2670    -0.1990     0.8040 c3         1 K8B      -0.084100
      4 CAQ          4.8920    -0.2240    -0.1020 ca         1 K8B      -0.074300
      5 CAI          4.0760    -1.3170    -0.4570 ca         1 K8B      -0.105500
      6 CAG          2.7080    -1.3210    -0.1320 ca         1 K8B      -0.107500
      7 CAH          4.3150     0.8650     0.5820 ca         1 K8B      -0.105500
      8 CAF          2.9470     0.8610     0.9060 ca         1 K8B      -0.107500
      9 CAP          2.1360    -0.2320     0.5520 ca         1 K8B      -0.081300
     10 CAJ          0.6530    -0.2360     0.8970 c3         1 K8B      -0.029100
     11 CAK         -0.2140     0.2960    -0.2680 c3         1 K8B      -0.069400
     12 CAS         -1.7350     0.4490     0.0410 c6         1 K8B      -0.061700
     13 CAM         -2.4780     1.1150    -1.1420 c6         1 K8B      -0.078400
     14 CAO         -3.9870     1.2870    -0.8450 c6         1 K8B       0.198300
     15 CAL         -2.4300    -0.9000     0.3570 c6         1 K8B      -0.078400
     16 CAN         -3.9440    -0.7220     0.6290 c6         1 K8B       0.198300
     17 NAT         -4.6540     0.0060    -0.4700 nh         1 K8B      -0.646400
     18 CAE         -6.0420    -0.0640    -0.6110 c2         1 K8B      -0.004000
     19 CAD         -6.8630    -0.6720     0.2610 c2         1 K8B      -0.320200
     20 CAA         -8.3680    -0.7430     0.1200 c3         1 K8B      -0.033900
     21 H1           7.7820     0.8530    -1.7430 hc         1 K8B       0.034533
     22 H2           6.1080     0.8640    -2.3320 hc         1 K8B       0.034533
     23 H3           6.5760     1.8980    -0.9640 hc         1 K8B       0.034533
     24 H4           6.6150    -1.1650    -0.9840 hc         1 K8B       0.048700
     25 H5           7.1320     0.7360     1.3610 hc         1 K8B       0.034533
     26 H6           7.0170    -1.0340     1.4690 hc         1 K8B       0.034533
     27 H7           8.3270    -0.2850     0.5350 hc         1 K8B       0.034533
     28 H8           4.4990    -2.1680    -0.9860 ha         1 K8B       0.110000
     29 H9           2.0920    -2.1710    -0.4160 ha         1 K8B       0.109500
     30 H10          4.9250     1.7200     0.8640 ha         1 K8B       0.110000
     31 H11          2.5180     1.7120     1.4310 ha         1 K8B       0.109500
     32 H12          0.3400    -1.2540     1.1550 hc         1 K8B       0.045700
     33 H13          0.4720     0.3770     1.7890 hc         1 K8B       0.045700
     34 H14          0.1900     1.2720    -0.5640 hc         1 K8B       0.044200
     35 H15         -0.0750    -0.3630    -1.1340 hc         1 K8B       0.044200
     36 H16         -1.8160     1.1050     0.9200 hc         1 K8B       0.044700
     37 H17         -2.0390     2.0970    -1.3600 hc         1 K8B       0.048200
     38 H18         -2.3550     0.5090    -2.0500 hc         1 K8B       0.048200
     39 H19         -4.1240     2.0260    -0.0410 h1         1 K8B       0.035450
     40 H20         -4.4610     1.7040    -1.7460 h1         1 K8B       0.035450
     41 H21         -2.2920    -1.5950    -0.4830 hc         1 K8B       0.048200
     42 H22         -1.9710    -1.3750     1.2330 hc         1 K8B       0.048200
     43 H23         -4.3710    -1.7290     0.7470 h1         1 K8B       0.035450
     44 H24         -4.0900    -0.1920     1.5820 h1         1 K8B       0.035450
     45 H25         -6.4350     0.4390    -1.4990 h4         1 K8B       0.176000
     46 H26         -6.4880    -1.1610     1.1590 ha         1 K8B       0.169000
     47 H27         -8.7080    -1.7840     0.0690 hc         1 K8B       0.030700
     48 H28         -8.8650    -0.2710     0.9770 hc         1 K8B       0.030700
     49 H29         -8.7150    -0.2350    -0.7880 hc         1 K8B       0.030700
@<TRIPOS>BOND
     1     1     2 1   
     2     1    21 1   
     3     1    22 1   
     4     1    23 1   
     5     2     3 1   
     6     2     4 1   
     7     2    24 1   
     8     3    25 1   
     9     3    26 1   
    10     3    27 1   
    11     4     5 ar  
    12     4     7 ar  
    13     5     6 ar  
    14     5    28 1   
    15     6     9 ar  
    16     6    29 1   
    17     7     8 ar  
    18     7    30 1   
    19     8     9 ar  
    20     8    31 1   
    21     9    10 1   
    22    10    11 1   
    23    10    32 1   
    24    10    33 1   
    25    11    12 1   
    26    11    34 1   
    27    11    35 1   
    28    12    13 1   
    29    12    15 1   
    30    12    36 1   
    31    13    14 1   
    32    13    37 1   
    33    13    38 1   
    34    14    17 1   
    35    14    39 1   
    36    14    40 1   
    37    15    16 1   
    38    15    41 1   
    39    15    42 1   
    40    16    17 1   
    41    16    43 1   
    42    16    44 1   
    43    17    18 1   
    44    18    19 2   
    45    18    45 1   
    46    19    20 1   
    47    19    46 1   
    48    20    47 1   
    49    20    48 1   
    50    20    49 1   
@<TRIPOS>SUBSTRUCTURE
     1 K8B         1 TEMP              0 ****  ****    0 ROOT
