@<TRIPOS>MOLECULE
K8C
   16    16     1     0     0
SMALL
No Charge or Current Charge


@<TRIPOS>ATOM
      1 O09        -14.3110     9.7630   -12.7360 o          1 K8C      -0.496100
      2 C08        -15.1950    10.0010   -11.9170 c          1 K8C       0.479400
      3 C07        -14.9270    10.4930   -10.5170 ca         1 K8C       0.025500
      4 C06        -13.6160    10.7170   -10.0450 ca         1 K8C      -0.175000
      5 C05        -13.4650    11.1760    -8.7260 ca         1 K8C       0.113900
      6 N04        -14.5300    11.3980    -7.9310 nb         1 K8C      -0.145000
      7 N10        -15.9920    10.7170    -9.7140 nb         1 K8C      -0.176000
      8 C03        -15.7490    11.1580    -8.4590 ca         1 K8C       0.221300
      9 S02        -17.1500    11.4600    -7.3830 ss         1 K8C      -0.295300
     10 C01        -18.6280    11.0360    -8.4150 c3         1 K8C       0.022900
     11 H1         -16.2660     9.8590   -12.1810 h4         1 K8C       0.022200
     12 H2         -12.7470    10.5430   -10.6750 ha         1 K8C       0.153000
     13 H3         -12.4820    11.3690    -8.3000 h4         1 K8C       0.033100
     14 H4         -19.5430    11.1920    -7.8310 h1         1 K8C       0.072367
     15 H5         -18.6590    11.6770    -9.3060 h1         1 K8C       0.072367
     16 H6         -18.5780     9.9850    -8.7260 h1         1 K8C       0.072367
@<TRIPOS>BOND
     1     1     2 2   
     2     2     3 1   
     3     2    11 1   
     4     3     4 ar  
     5     3     7 ar  
     6     4     5 ar  
     7     4    12 1   
     8     5     6 ar  
     9     5    13 1   
    10     6     8 ar  
    11     7     8 ar  
    12     8     9 1   
    13     9    10 1   
    14    10    14 1   
    15    10    15 1   
    16    10    16 1   
@<TRIPOS>SUBSTRUCTURE
     1 K8C         1 TEMP              0 ****  ****    0 ROOT
