@<TRIPOS>MOLECULE
K8C
   16    16     1     0     0
SMALL
abcg2


@<TRIPOS>ATOM
      1 O09        -14.3350     9.7820   -12.7000 o          1 K8C      -0.496100
      2 C08        -15.1980    10.0110   -11.8850 c          1 K8C       0.479400
      3 C07        -14.9210    10.4960   -10.5000 ca         1 K8C       0.025500
      4 C06        -13.6330    10.7160   -10.0400 ca         1 K8C      -0.175000
      5 C05        -13.5220    11.1730    -8.7310 ca         1 K8C       0.113900
      6 N04        -14.5830    11.3880    -7.9610 nb         1 K8C      -0.145000
      7 N10        -16.0040    10.7040    -9.7420 nb         1 K8C      -0.176000
      8 C03        -15.7860    11.1400    -8.5050 ca         1 K8C       0.221300
      9 S02        -17.1310    11.4460    -7.4190 ss         1 K8C      -0.295300
     10 C01        -18.5640    11.0310    -8.4440 c3         1 K8C       0.022900
     11 H1         -16.2700     9.8760   -12.1090 h4         1 K8C       0.022200
     12 H2         -12.7710    10.5410   -10.6650 ha         1 K8C       0.153000
     13 H3         -12.5520    11.3730    -8.2900 h4         1 K8C       0.033100
     14 H4         -19.4310    11.2010    -7.8080 h1         1 K8C       0.072367
     15 H5         -18.6100    11.6780    -9.3160 h1         1 K8C       0.072367
     16 H6         -18.5270     9.9880    -8.7490 h1         1 K8C       0.072367
@<TRIPOS>BOND
     1     1     2 2   
     2     2     3 1   
     3     2    11 1   
     4     3     4 ar  
     5     3     7 ar  
     6     4     5 ar  
     7     4    12 1   
     8     5     6 ar  
     9     5    13 1   
    10     6     8 ar  
    11     7     8 ar  
    12     8     9 1   
    13     9    10 1   
    14    10    14 1   
    15    10    15 1   
    16    10    16 1   
@<TRIPOS>SUBSTRUCTURE
     1 K8C         1 TEMP              0 ****  ****    0 ROOT
