@<TRIPOS>MOLECULE
K8D
   21    21     1     0     0
SMALL
bcc


@<TRIPOS>ATOM
      1 C10          0.2650    -0.5580    -0.0090 ca         1 K8D      -0.044600
      2 C01         -4.5380     0.3890     0.0150 c3         1 K8D       0.224100
      3 C03         -2.1180    -0.0260    -0.1200 ca         1 K8D       0.097600
      4 C04         -1.7960     1.3330    -0.0310 ca         1 K8D      -0.251000
      5 C05         -0.4670     1.7190     0.0590 ca         1 K8D      -0.105000
      6 C06          0.5830     0.8060     0.0790 ca         1 K8D      -0.138600
      7 C07          2.0010     1.3050     0.2590 c          1 K8D       0.925200
      8 C11          1.3020    -1.6660    -0.0910 c          1 K8D       0.965200
      9 C14         -1.0630    -0.9500    -0.0990 ca         1 K8D      -0.203000
     10 N02         -3.4110    -0.4670    -0.2560 nu         1 K8D      -0.778600
     11 O08          2.8440     0.4800     0.6610 o          1 K8D      -0.842300
     12 O09          2.2130     2.5140     0.0140 o          1 K8D      -0.842300
     13 O12          1.4010    -2.4140     0.9000 o          1 K8D      -0.848300
     14 O13          1.8790    -1.7860    -1.1870 o          1 K8D      -0.848300
     15 H1          -4.6030     1.2020    -0.7100 h1         1 K8D       0.002367
     16 H2          -5.4490    -0.1990    -0.0730 h1         1 K8D       0.002367
     17 H3          -4.5170     0.8360     1.0150 h1         1 K8D       0.002367
     18 H4          -2.5700     2.0900    -0.0320 ha         1 K8D       0.077000
     19 H5          -0.2400     2.7760     0.1290 ha         1 K8D       0.117000
     20 H6          -1.3020    -2.0070    -0.1690 ha         1 K8D       0.102000
     21 H7          -3.5540    -1.4400    -0.0430 hn         1 K8D       0.387800
@<TRIPOS>BOND
     1     1     6 ar  
     2     1     8 1   
     3     1     9 ar  
     4     2    10 1   
     5     2    15 1   
     6     2    16 1   
     7     2    17 1   
     8     3     4 ar  
     9     3     9 ar  
    10     3    10 1   
    11     4     5 ar  
    12     4    18 1   
    13     5     6 ar  
    14     5    19 1   
    15     6     7 1   
    16     7    11 1   
    17     7    12 1   
    18     8    13 1   
    19     8    14 1   
    20     9    20 1   
    21    10    21 1   
@<TRIPOS>SUBSTRUCTURE
     1 K8D         1 TEMP              0 ****  ****    0 ROOT
