@<TRIPOS>MOLECULE
K8D
   21    21     1     0     0
SMALL
No Charge or Current Charge


@<TRIPOS>ATOM
      1 C10          0.2780    -0.5810    -0.0360 ca         1 K8D      -0.044600
      2 C01         -4.6460     0.3900    -0.0070 c3         1 K8D       0.224100
      3 C03         -2.1080    -0.0120    -0.0130 ca         1 K8D       0.236000
      4 C04         -1.7800     1.3490     0.0960 ca         1 K8D      -0.233000
      5 C05         -0.4350     1.7500     0.1470 ca         1 K8D      -0.087000
      6 C06          0.6020     0.7960     0.0880 ca         1 K8D      -0.138600
      7 C07          2.0370     1.2530     0.1860 c          1 K8D       0.714600
      8 C11          1.3590    -1.6400    -0.1530 c          1 K8D       0.754600
      9 C14         -1.0830    -0.9660    -0.0790 ca         1 K8D      -0.185000
     10 N02         -3.4350    -0.4410    -0.0640 nu         1 K8D      -0.972200
     11 O08          2.7300     0.7930     1.0830 o          1 K8D      -0.737000
     12 O09          2.4090     2.1500    -0.5580 o          1 K8D      -0.737000
     13 O12          1.3200    -2.5960     0.6120 o          1 K8D      -0.743000
     14 O13          2.1510    -1.5610    -1.0840 o          1 K8D      -0.743000
     15 H1          -4.6600     1.1010    -0.8450 h1         1 K8D       0.002367
     16 H2          -5.5410    -0.2430    -0.0700 h1         1 K8D       0.002367
     17 H3          -4.6790     0.9520     0.9360 h1         1 K8D       0.002367
     18 H4          -2.5570     2.1060     0.1480 ha         1 K8D       0.059000
     19 H5          -0.1940     2.8070     0.2430 ha         1 K8D       0.099000
     20 H6          -1.3330    -2.0190    -0.1760 ha         1 K8D       0.084000
     21 H7          -3.5740    -1.4500    -0.1440 hn         1 K8D       0.443000
@<TRIPOS>BOND
     1     1     6 ar  
     2     1     8 1   
     3     1     9 ar  
     4     2    10 1   
     5     2    15 1   
     6     2    16 1   
     7     2    17 1   
     8     3     4 ar  
     9     3     9 ar  
    10     3    10 1   
    11     4     5 ar  
    12     4    18 1   
    13     5     6 ar  
    14     5    19 1   
    15     6     7 1   
    16     7    11 1   
    17     7    12 1   
    18     8    13 1   
    19     8    14 1   
    20     9    20 1   
    21    10    21 1   
@<TRIPOS>SUBSTRUCTURE
     1 K8D         1 TEMP              0 ****  ****    0 ROOT
