@<TRIPOS>MOLECULE
K8F
   34    35     1     0     0
SMALL
abcg2


@<TRIPOS>ATOM
      1 C02         67.1000    28.7940  -188.8990 ca         1 K8F       0.601900
      2 C03         67.1450    30.1810  -188.6740 ca         1 K8F      -0.232000
      3 C04         66.1170    30.7750  -187.9740 ca         1 K8F       0.001700
      4 C05         65.0730    29.9640  -187.5100 ca         1 K8F      -0.217000
      5 C06         65.1060    28.6080  -187.7770 ca         1 K8F       0.405300
      6 C07         66.0980    32.2520  -187.7230 c3         1 K8F      -0.053800
      7 C08         64.0220    27.6610  -187.3350 c3         1 K8F      -0.132700
      8 C09         63.0120    28.2030  -186.3350 c3         1 K8F      -0.075400
      9 C10         62.0270    27.1210  -185.9180 c3         1 K8F       0.163800
     10 C12         60.0450    26.6500  -184.5020 cy         1 K8F       0.093800
     11 C13         59.0360    27.7850  -184.5770 cy         1 K8F       0.156000
     12 C14         60.0430    28.5490  -185.4250 cy         1 K8F       0.093800
     13 F15         57.8330    27.5150  -185.1300 f          1 K8F      -0.102000
     14 F16         58.7740    28.3680  -183.3790 f          1 K8F      -0.102000
     15 N01         66.1030    28.0360  -188.4610 nb         1 K8F      -0.760000
     16 N02         68.1260    28.1620  -189.5440 nv         1 K8F      -1.052900
     17 N11         61.0660    27.6030  -184.9550 nq         1 K8F      -0.698600
     18 H1          67.9770    30.7660  -189.0470 ha         1 K8F       0.119000
     19 H2          64.2570    30.4040  -186.9530 ha         1 K8F       0.122000
     20 H3          65.3240    32.7330  -188.3240 hc         1 K8F       0.046700
     21 H4          65.8710    32.4700  -186.6790 hc         1 K8F       0.046700
     22 H5          67.0500    32.7170  -187.9710 hc         1 K8F       0.046700
     23 H6          63.4940    27.3070  -188.2280 hc         1 K8F       0.060200
     24 H7          64.5080    26.7740  -186.9170 hc         1 K8F       0.060200
     25 H8          63.5240    28.5830  -185.4470 hc         1 K8F       0.051700
     26 H9          62.4650    29.0450  -186.7690 hc         1 K8F       0.051700
     27 H10         61.5240    26.7160  -186.8140 h1         1 K8F       0.036700
     28 H11         62.5720    26.2900  -185.4630 h1         1 K8F       0.036700
     29 H12         59.8150    25.8690  -185.2370 h1         1 K8F       0.074200
     30 H13         60.2220    26.1910  -183.5280 h1         1 K8F       0.074200
     31 H14         60.2150    29.5990  -185.1820 h1         1 K8F       0.074200
     32 H15         59.8130    28.4570  -186.4940 h1         1 K8F       0.074200
     33 H16         67.9190    27.2490  -189.9150 hn         1 K8F       0.467000
     34 H17         68.7100    28.7230  -190.1410 hn         1 K8F       0.467000
@<TRIPOS>BOND
     1     1     2 ar  
     2     1    15 ar  
     3     1    16 1   
     4     2     3 ar  
     5     2    18 1   
     6     3     4 ar  
     7     3     6 1   
     8     4     5 ar  
     9     4    19 1   
    10     5     7 1   
    11     5    15 ar  
    12     6    20 1   
    13     6    21 1   
    14     6    22 1   
    15     7     8 1   
    16     7    23 1   
    17     7    24 1   
    18     8     9 1   
    19     8    25 1   
    20     8    26 1   
    21     9    17 1   
    22     9    27 1   
    23     9    28 1   
    24    10    11 1   
    25    10    17 1   
    26    10    29 1   
    27    10    30 1   
    28    11    12 1   
    29    11    13 1   
    30    11    14 1   
    31    12    17 1   
    32    12    31 1   
    33    12    32 1   
    34    16    33 1   
    35    16    34 1   
@<TRIPOS>SUBSTRUCTURE
     1 K8F         1 TEMP              0 ****  ****    0 ROOT
