@<TRIPOS>MOLECULE
K8F
   34    35     1     0     0
SMALL
No Charge or Current Charge


@<TRIPOS>ATOM
      1 C02         67.2140    28.8950  -188.0560 ca         1 K8F       0.601900
      2 C03         67.1970    30.2730  -188.2860 ca         1 K8F      -0.232000
      3 C04         65.9550    30.9110  -188.4200 ca         1 K8F       0.001700
      4 C05         64.8060    30.1110  -188.3200 ca         1 K8F      -0.217000
      5 C06         64.9410    28.7280  -188.0900 ca         1 K8F       0.405300
      6 C07         65.8570    32.4060  -188.6710 c3         1 K8F      -0.053800
      7 C08         63.7120    27.8380  -187.9710 c3         1 K8F      -0.132700
      8 C09         63.0070    27.9780  -186.6020 c3         1 K8F      -0.075400
      9 C10         61.7560    27.0840  -186.4730 c3         1 K8F       0.163800
     10 C12         59.8670    26.4690  -184.8240 cy         1 K8F       0.093800
     11 C13         59.6630    27.5580  -183.7120 cy         1 K8F       0.156000
     12 C14         60.4500    28.4760  -184.7130 cy         1 K8F       0.093800
     13 F15         58.3760    27.9180  -183.4580 f          1 K8F      -0.102000
     14 F16         60.2750    27.3140  -182.5180 f          1 K8F      -0.102000
     15 N01         66.1430    28.1230  -187.9600 nb         1 K8F      -0.760000
     16 N02         68.3340    28.1830  -187.9210 nv         1 K8F      -1.052900
     17 N11         61.1210    27.2130  -185.1570 nq         1 K8F      -0.698600
     18 H1          68.1250    30.8320  -188.3560 ha         1 K8F       0.119000
     19 H2          63.8170    30.5500  -188.4180 ha         1 K8F       0.122000
     20 H3          65.8220    32.6200  -189.7460 hc         1 K8F       0.046700
     21 H4          64.9530    32.8280  -188.2160 hc         1 K8F       0.046700
     22 H5          66.7180    32.9390  -188.2510 hc         1 K8F       0.046700
     23 H6          63.0020    28.0920  -188.7670 hc         1 K8F       0.060200
     24 H7          63.9840    26.7870  -188.1280 hc         1 K8F       0.060200
     25 H8          63.7150    27.7210  -185.8040 hc         1 K8F       0.051700
     26 H9          62.7200    29.0260  -186.4500 hc         1 K8F       0.051700
     27 H10         61.0300    27.3510  -187.2530 h1         1 K8F       0.036700
     28 H11         62.0470    26.0350  -186.6210 h1         1 K8F       0.036700
     29 H12         59.0920    26.4900  -185.6020 h1         1 K8F       0.074200
     30 H13         59.9930    25.4470  -184.4480 h1         1 K8F       0.074200
     31 H14         61.0920    29.2270  -184.2380 h1         1 K8F       0.074200
     32 H15         59.8080    28.9520  -185.4660 h1         1 K8F       0.074200
     33 H16         68.2080    27.1810  -187.9980 hn         1 K8F       0.467000
     34 H17         69.1860    28.5660  -188.3140 hn         1 K8F       0.467000
@<TRIPOS>BOND
     1     1     2 ar  
     2     1    15 ar  
     3     1    16 1   
     4     2     3 ar  
     5     2    18 1   
     6     3     4 ar  
     7     3     6 1   
     8     4     5 ar  
     9     4    19 1   
    10     5     7 1   
    11     5    15 ar  
    12     6    20 1   
    13     6    21 1   
    14     6    22 1   
    15     7     8 1   
    16     7    23 1   
    17     7    24 1   
    18     8     9 1   
    19     8    25 1   
    20     8    26 1   
    21     9    17 1   
    22     9    27 1   
    23     9    28 1   
    24    10    11 1   
    25    10    17 1   
    26    10    29 1   
    27    10    30 1   
    28    11    12 1   
    29    11    13 1   
    30    11    14 1   
    31    12    17 1   
    32    12    31 1   
    33    12    32 1   
    34    16    33 1   
    35    16    34 1   
@<TRIPOS>SUBSTRUCTURE
     1 K8F         1 TEMP              0 ****  ****    0 ROOT
