@<TRIPOS>MOLECULE
K8G
   18    18     1     0     0
SMALL
No Charge or Current Charge


@<TRIPOS>ATOM
      1 C13         -1.4420    -1.7040     0.1030 c          1 K8G       0.719600
      2 C02         -2.4430     1.0990    -0.2120 c          1 K8G       0.753600
      3 C04         -0.9600     0.7880    -0.1020 ca         1 K8G      -0.020600
      4 C05         -0.0260     1.8460    -0.1390 ca         1 K8G      -0.149000
      5 C06          1.3540     1.5960    -0.0830 ca         1 K8G      -0.094000
      6 C07          1.8340     0.2710     0.0120 ca         1 K8G      -0.247200
      7 C11          0.9020    -0.7920     0.0570 ca         1 K8G      -0.038000
      8 C12         -0.4860    -0.5440     0.0080 ca         1 K8G      -0.143600
      9 N08          3.3070    -0.0080     0.0700 no         1 K8G       0.705200
     10 O01         -3.0770     0.5910    -1.1290 o          1 K8G      -0.726000
     11 O03         -2.9170     1.9390     0.5440 o          1 K8G      -0.726000
     12 O09          3.6780    -1.1860     0.1580 o          1 K8G      -0.471500
     13 O10          4.0900     0.9510     0.0260 o          1 K8G      -0.471500
     14 O14         -2.2780    -1.6900     0.9960 o          1 K8G      -0.717500
     15 O15         -1.2580    -2.6620    -0.6340 o          1 K8G      -0.717500
     16 H1          -0.3780     2.8720    -0.2250 ha         1 K8G       0.101000
     17 H2           2.0430     2.4380    -0.1180 ha         1 K8G       0.099000
     18 H3           1.2460    -1.8220     0.1410 ha         1 K8G       0.145000
@<TRIPOS>BOND
     1     1     8 1   
     2     1    14 1   
     3     1    15 1   
     4     2     3 1   
     5     2    10 1   
     6     2    11 1   
     7     3     4 ar  
     8     3     8 ar  
     9     4     5 ar  
    10     4    16 1   
    11     5     6 ar  
    12     5    17 1   
    13     6     7 ar  
    14     6     9 1   
    15     7     8 ar  
    16     7    18 1   
    17     9    12 1   
    18     9    13 1   
@<TRIPOS>SUBSTRUCTURE
     1 K8G         1 TEMP              0 ****  ****    0 ROOT
