@<TRIPOS>MOLECULE
K8G
   18    18     1     0     0
SMALL
bcc


@<TRIPOS>ATOM
      1 C13         -1.4070    -1.7490     0.1490 c          1 K8G       0.930200
      2 C02         -2.4060     1.1340    -0.1860 c          1 K8G       0.964200
      3 C04         -0.9390     0.7610    -0.0690 ca         1 K8G      -0.020600
      4 C05         -0.0170     1.8110    -0.1180 ca         1 K8G      -0.167000
      5 C06          1.3450     1.5850    -0.0940 ca         1 K8G      -0.112000
      6 C07          1.7920     0.2720    -0.0160 ca         1 K8G      -0.247200
      7 C11          0.9000    -0.7880     0.0350 ca         1 K8G      -0.056000
      8 C12         -0.4680    -0.5540     0.0190 ca         1 K8G      -0.143600
      9 N08          3.2160     0.0060     0.0130 no         1 K8G       0.325200
     10 O01         -2.9140     0.9350    -1.3020 o          1 K8G      -0.831300
     11 O03         -2.9100     1.6920     0.8030 o          1 K8G      -0.831300
     12 O09          3.5860    -1.1440     0.0800 o          1 K8G      -0.281500
     13 O10          3.9760     0.9480    -0.0340 o          1 K8G      -0.281500
     14 O14         -2.5550    -1.5030     0.5520 o          1 K8G      -0.822800
     15 O15         -0.9270    -2.8640    -0.1340 o          1 K8G      -0.822800
     16 H1          -0.3710     2.8330    -0.1820 ha         1 K8G       0.119000
     17 H2           2.0340     2.4160    -0.1330 ha         1 K8G       0.117000
     18 H3           1.2540    -1.8080     0.0890 ha         1 K8G       0.163000
@<TRIPOS>BOND
     1     1     8 1   
     2     1    14 1   
     3     1    15 1   
     4     2     3 1   
     5     2    10 1   
     6     2    11 1   
     7     3     4 ar  
     8     3     8 ar  
     9     4     5 ar  
    10     4    16 1   
    11     5     6 ar  
    12     5    17 1   
    13     6     7 ar  
    14     6     9 1   
    15     7     8 ar  
    16     7    18 1   
    17     9    12 1   
    18     9    13 1   
@<TRIPOS>SUBSTRUCTURE
     1 K8G         1 TEMP              0 ****  ****    0 ROOT
