@<TRIPOS>MOLECULE
K8I
   51    53     1     0     0
SMALL
abcg2


@<TRIPOS>ATOM
      1 C4          10.3600   -37.2310   115.6990 c5         1 K8I       0.235800
      2 C14          6.6890   -31.7650   112.5210 ca         1 K8I      -0.114000
      3 C5          10.9040   -36.0420   116.4690 c5         1 K8I      -0.135400
      4 C6          10.0080   -34.8950   116.0220 c5         1 K8I       0.166300
      5 C11          8.5400   -32.3230   113.9370 ca         1 K8I      -0.123000
      6 C7           9.7520   -35.1880   114.5290 c5         1 K8I       0.172500
      7 C8          10.8300   -34.5350   113.6630 c          1 K8I       0.626100
      8 C10          9.2210   -32.8580   112.8510 ca         1 K8I      -0.032000
      9 C12          7.2600   -31.7900   113.7900 ca         1 K8I      -0.067300
     10 C13          6.5200   -31.2660   114.9860 c3         1 K8I      -0.047800
     11 N1           9.3630   -36.4990   112.2610 nb         1 K8I      -0.759000
     12 N2           9.8400   -36.6370   114.4700 nh         1 K8I      -0.770300
     13 C3           9.5650   -37.2840   113.3250 ca         1 K8I       0.691900
     14 N3          10.5300   -33.3950   112.9920 n          1 K8I      -0.222400
     15 C2           9.1480   -37.0090   111.0660 ca         1 K8I       0.444300
     16 O1          10.5730   -33.6220   116.1740 oh         1 K8I      -0.646000
     17 C15          7.3810   -32.2670   111.4260 ca         1 K8I      -0.101000
     18 C16          8.6420   -32.8170   111.5860 ca         1 K8I      -0.125000
     19 O2          11.9450   -35.0260   113.6100 o          1 K8I      -0.593100
     20 C17          9.4690   -38.6980   113.2000 ca         1 K8I      -0.119000
     21 C18          9.4830   -39.5850   114.3080 cg         1 K8I       0.327000
     22 N4           9.4580   -40.3460   115.1750 n1         1 K8I      -0.446000
     23 C19          9.2660   -39.2240   111.9150 ca         1 K8I      -0.074300
     24 C20          9.1900   -40.7150   111.7160 c3         1 K8I       0.355300
     25 F1          10.2970   -41.3190   112.1570 f          1 K8I      -0.105000
     26 F2           9.0440   -41.0420   110.4340 f          1 K8I      -0.105000
     27 F3           8.1550   -41.2430   112.3770 f          1 K8I      -0.105000
     28 C21          9.1220   -38.3880   110.8360 ca         1 K8I      -0.196000
     29 H1           9.5660   -37.7260   116.2610 h1         1 K8I       0.063200
     30 H2          11.1360   -37.9650   115.4830 h1         1 K8I       0.063200
     31 H3           5.7010   -31.3430   112.3850 ha         1 K8I       0.114000
     32 H4          10.8700   -36.2070   117.5460 hc         1 K8I       0.075200
     33 H5          11.9370   -35.8380   116.1860 hc         1 K8I       0.075200
     34 H6           9.0450   -34.9620   116.5440 h1         1 K8I       0.041700
     35 H7           9.0110   -32.3250   114.9110 ha         1 K8I       0.133000
     36 H8           8.7550   -34.8650   114.2330 h1         1 K8I       0.095700
     37 H9          12.4950   -32.6900   112.7500 h1         1 K8I       0.044367
     38 H10         11.8080   -33.4210   111.2950 h1         1 K8I       0.044367
     39 H11         11.2610   -31.8280   111.8350 h1         1 K8I       0.044367
     40 H12          6.0780   -32.0840   115.5580 hc         1 K8I       0.043700
     41 H13          7.1830   -30.7240   115.6600 hc         1 K8I       0.043700
     42 H14          5.7110   -30.5960   114.6950 hc         1 K8I       0.043700
     43 H15          8.0560   -35.4340   110.1290 hc         1 K8I       0.058367
     44 H16          9.7890   -35.3820   109.8420 hc         1 K8I       0.058367
     45 H17          8.7930   -36.5710   108.9940 hc         1 K8I       0.058367
     46 H18         10.5990   -33.4080   117.1120 ho         1 K8I       0.453000
     47 H19          6.9310   -32.2360   110.4430 ha         1 K8I       0.114000
     48 H20          9.1750   -33.2140   110.7330 ha         1 K8I       0.119000
     49 H21          8.9710   -38.7610   109.8350 ha         1 K8I       0.145000
     50 C1           8.9340   -36.0530   109.9390 c3         1 K8I      -0.154400
     51 C9          11.5820   -32.8100   112.1710 c3         1 K8I       0.093300
@<TRIPOS>BOND
     1     1     3 1   
     2     1    12 1   
     3     1    29 1   
     4     1    30 1   
     5     2     9 ar  
     6     2    17 ar  
     7     2    31 1   
     8     3     4 1   
     9     3    32 1   
    10     3    33 1   
    11     4     6 1   
    12     4    16 1   
    13     4    34 1   
    14     5     8 ar  
    15     5     9 ar  
    16     5    35 1   
    17     6     7 1   
    18     6    12 1   
    19     6    36 1   
    20     7    14 1   
    21     7    19 2   
    22     8    14 1   
    23     8    18 ar  
    24     9    10 1   
    25    10    40 1   
    26    10    41 1   
    27    10    42 1   
    28    11    13 ar  
    29    11    15 ar  
    30    12    13 1   
    31    13    20 ar  
    32    14    51 1   
    33    15    28 ar  
    34    15    50 1   
    35    16    46 1   
    36    17    18 ar  
    37    17    47 1   
    38    18    48 1   
    39    20    21 1   
    40    20    23 ar  
    41    21    22 3   
    42    23    24 1   
    43    23    28 ar  
    44    24    25 1   
    45    24    26 1   
    46    24    27 1   
    47    28    49 1   
    48    37    51 1   
    49    38    51 1   
    50    39    51 1   
    51    43    50 1   
    52    44    50 1   
    53    45    50 1   
@<TRIPOS>SUBSTRUCTURE
     1 K8I         1 TEMP              0 ****  ****    0 ROOT
