@<TRIPOS>MOLECULE
K8I
   51    53     1     0     0
SMALL
No Charge or Current Charge


@<TRIPOS>ATOM
      1 C4          10.4620   -37.1690   115.7160 c5         1 K8I       0.235800
      2 C14          6.4230   -32.0560   112.7600 ca         1 K8I      -0.114000
      3 C5          11.0170   -35.9530   116.4930 c5         1 K8I      -0.135400
      4 C6           9.9970   -34.8470   116.1270 c5         1 K8I       0.166300
      5 C11          8.5290   -32.2770   113.9520 ca         1 K8I      -0.123000
      6 C7           9.8390   -35.0510   114.5800 c5         1 K8I       0.172500
      7 C8          10.9850   -34.2790   113.7860 c          1 K8I       0.626100
      8 C10          9.1520   -32.7860   112.7930 ca         1 K8I      -0.032000
      9 C12          7.1750   -31.8920   113.9360 ca         1 K8I      -0.067300
     10 C13          6.5300   -31.3200   115.1890 c3         1 K8I      -0.047800
     11 N1           9.8800   -36.4880   112.1580 nb         1 K8I      -0.759000
     12 N2           9.9980   -36.5570   114.4410 nh         1 K8I      -0.770300
     13 C3           9.7250   -37.2710   113.2390 ca         1 K8I       0.691900
     14 N3          10.4870   -33.3270   112.8400 n          1 K8I      -0.222400
     15 C2           9.6650   -37.0110   110.9420 ca         1 K8I       0.444300
     16 O1          10.4740   -33.5570   116.5160 oh         1 K8I      -0.646000
     17 C15          7.0180   -32.6090   111.6150 ca         1 K8I      -0.101000
     18 C16          8.3700   -32.9890   111.6390 ca         1 K8I      -0.125000
     19 O2          12.1950   -34.5110   113.8670 o          1 K8I      -0.593100
     20 C17          9.3080   -38.6290   113.1380 ca         1 K8I      -0.119000
     21 C18          9.0720   -39.4250   114.3080 cg         1 K8I       0.327000
     22 N4           8.8760   -40.0890   115.2480 n1         1 K8I      -0.446000
     23 C19          9.0800   -39.1900   111.8490 ca         1 K8I      -0.074300
     24 C20          8.6280   -40.6540   111.6360 c3         1 K8I       0.355300
     25 F1           9.5070   -41.5350   112.1660 f          1 K8I      -0.105000
     26 F2           8.5050   -40.9820   110.3290 f          1 K8I      -0.105000
     27 F3           7.4240   -40.8970   112.2040 f          1 K8I      -0.105000
     28 C21          9.2730   -38.3380   110.7430 ca         1 K8I      -0.196000
     29 H1           9.6270   -37.6190   116.2700 h1         1 K8I       0.063200
     30 H2          11.2390   -37.9320   115.5630 h1         1 K8I       0.063200
     31 H3           5.3730   -31.7700   112.7360 ha         1 K8I       0.114000
     32 H4          11.0610   -36.1450   117.5700 hc         1 K8I       0.075200
     33 H5          12.0330   -35.7060   116.1690 hc         1 K8I       0.075200
     34 H6           9.0360   -35.0520   116.6190 h1         1 K8I       0.041700
     35 H7           9.1050   -32.1500   114.8630 ha         1 K8I       0.133000
     36 H8           8.8440   -34.7450   114.2430 h1         1 K8I       0.095700
     37 H9          12.2550   -32.3110   112.2720 h1         1 K8I       0.044367
     38 H10         11.8370   -33.7200   111.2540 h1         1 K8I       0.044367
     39 H11         10.9250   -32.1930   111.0910 h1         1 K8I       0.044367
     40 H12          6.1730   -32.1230   115.8440 hc         1 K8I       0.043700
     41 H13          7.2410   -30.7120   115.7610 hc         1 K8I       0.043700
     42 H14          5.6730   -30.6810   114.9440 hc         1 K8I       0.043700
     43 H15          8.9040   -35.6440   109.4540 hc         1 K8I       0.058367
     44 H16         10.5430   -35.2560   110.0080 hc         1 K8I       0.058367
     45 H17         10.2830   -36.6120   108.9060 hc         1 K8I       0.058367
     46 H18         10.5550   -33.5650   117.4960 ho         1 K8I       0.453000
     47 H19          6.4280   -32.7570   110.7130 ha         1 K8I       0.114000
     48 H20          8.8080   -33.4460   110.7560 ha         1 K8I       0.119000
     49 H21          9.1140   -38.6860   109.7260 ha         1 K8I       0.145000
     50 C1           9.8610   -36.0780   109.7650 c3         1 K8I      -0.154400
     51 C9          11.4300   -32.8600   111.8010 c3         1 K8I       0.093300
@<TRIPOS>BOND
     1     1     3 1   
     2     1    12 1   
     3     1    29 1   
     4     1    30 1   
     5     2     9 ar  
     6     2    17 ar  
     7     2    31 1   
     8     3     4 1   
     9     3    32 1   
    10     3    33 1   
    11     4     6 1   
    12     4    16 1   
    13     4    34 1   
    14     5     8 ar  
    15     5     9 ar  
    16     5    35 1   
    17     6     7 1   
    18     6    12 1   
    19     6    36 1   
    20     7    14 1   
    21     7    19 2   
    22     8    14 1   
    23     8    18 ar  
    24     9    10 1   
    25    10    40 1   
    26    10    41 1   
    27    10    42 1   
    28    11    13 ar  
    29    11    15 ar  
    30    12    13 1   
    31    13    20 ar  
    32    14    51 1   
    33    15    28 ar  
    34    15    50 1   
    35    16    46 1   
    36    17    18 ar  
    37    17    47 1   
    38    18    48 1   
    39    20    21 1   
    40    20    23 ar  
    41    21    22 3   
    42    23    24 1   
    43    23    28 ar  
    44    24    25 1   
    45    24    26 1   
    46    24    27 1   
    47    28    49 1   
    48    37    51 1   
    49    38    51 1   
    50    39    51 1   
    51    43    50 1   
    52    44    50 1   
    53    45    50 1   
@<TRIPOS>SUBSTRUCTURE
     1 K8I         1 TEMP              0 ****  ****    0 ROOT
