@<TRIPOS>MOLECULE
K8J
   16    16     1     0     0
SMALL
No Charge or Current Charge


@<TRIPOS>ATOM
      1 C10         -0.1020    -0.5650    -0.0640 ca         1 K8J      -0.059600
      2 C02          1.7950     1.1290     0.1660 c          1 K8J       0.722600
      3 C04          0.3280     0.7840     0.0600 ca         1 K8J      -0.120600
      4 C05         -0.6320     1.8200     0.1140 ca         1 K8J      -0.096000
      5 C06         -2.0040     1.5260     0.0580 ca         1 K8J      -0.221000
      6 C07         -2.4260     0.1960    -0.0500 ca         1 K8J       0.095000
      7 C09         -1.4880    -0.8440    -0.1110 ca         1 K8J      -0.166000
      8 C11          0.8920    -1.7040    -0.1760 c          1 K8J       0.749600
      9 F08         -3.7450    -0.0860    -0.1010 f          1 K8J      -0.244000
     10 O01          2.4450     0.6200     1.0690 o          1 K8J      -0.732500
     11 O03          2.2410     1.9920    -0.5790 o          1 K8J      -0.732500
     12 O12          0.7590    -2.6640     0.5740 o          1 K8J      -0.737000
     13 O13          1.7060    -1.6770    -1.0910 o          1 K8J      -0.737000
     14 H1          -0.3070     2.8540     0.2100 ha         1 K8J       0.101000
     15 H2          -2.7360     2.3290     0.1040 ha         1 K8J       0.073000
     16 H3          -1.8320    -1.8700    -0.2070 ha         1 K8J       0.104000
@<TRIPOS>BOND
     1     1     3 ar  
     2     1     7 ar  
     3     1     8 1   
     4     2     3 1   
     5     2    10 1   
     6     2    11 1   
     7     3     4 ar  
     8     4     5 ar  
     9     4    14 1   
    10     5     6 ar  
    11     5    15 1   
    12     6     7 ar  
    13     6     9 1   
    14     7    16 1   
    15     8    12 1   
    16     8    13 1   
@<TRIPOS>SUBSTRUCTURE
     1 K8J         1 TEMP              0 ****  ****    0 ROOT
