@<TRIPOS>MOLECULE
K8J
   16    16     1     0     0
SMALL
bcc


@<TRIPOS>ATOM
      1 C10         -0.0940    -0.5460    -0.0340 ca         1 K8J      -0.059600
      2 C02          1.7900     1.1610     0.2130 c          1 K8J       0.933200
      3 C04          0.3270     0.7860     0.0490 ca         1 K8J      -0.120600
      4 C05         -0.6310     1.7980     0.0560 ca         1 K8J      -0.114000
      5 C06         -1.9910     1.5230     0.0070 ca         1 K8J      -0.239000
      6 C07         -2.3740     0.1990    -0.0580 ca         1 K8J       0.059900
      7 C09         -1.4570    -0.8330    -0.0750 ca         1 K8J      -0.184000
      8 C11          0.8610    -1.7200    -0.1720 c          1 K8J       0.960200
      9 F08         -3.6880    -0.1000    -0.1060 f          1 K8J      -0.208900
     10 O01          2.5080     0.3380     0.8110 o          1 K8J      -0.837800
     11 O03          2.1370     2.2760    -0.2260 o          1 K8J      -0.837800
     12 O12          0.8110    -2.5850     0.7220 o          1 K8J      -0.842300
     13 O13          1.5360    -1.7440    -1.2160 o          1 K8J      -0.842300
     14 H1          -0.3070     2.8290     0.1140 ha         1 K8J       0.119000
     15 H2          -2.7280     2.3150     0.0250 ha         1 K8J       0.091000
     16 H3          -1.8060    -1.8570    -0.1330 ha         1 K8J       0.122000
@<TRIPOS>BOND
     1     1     3 ar  
     2     1     7 ar  
     3     1     8 1   
     4     2     3 1   
     5     2    10 1   
     6     2    11 1   
     7     3     4 ar  
     8     4     5 ar  
     9     4    14 1   
    10     5     6 ar  
    11     5    15 1   
    12     6     7 ar  
    13     6     9 1   
    14     7    16 1   
    15     8    12 1   
    16     8    13 1   
@<TRIPOS>SUBSTRUCTURE
     1 K8J         1 TEMP              0 ****  ****    0 ROOT
