@<TRIPOS>MOLECULE
K8K
   46    49     1     0     0
SMALL
abcg2


@<TRIPOS>ATOM
      1 C10         -1.3240     0.1370     0.3770 c3         1 K8K       0.034700
      2 C13         -4.0500     1.0180     0.8150 ca         1 K8K      -0.052300
      3 C21          3.9070    -1.7340     0.4590 cc         1 K8K       0.536300
      4 C22          5.1890    -1.3960     1.1400 c3         1 K8K      -0.046400
      5 C24          6.4920    -0.0210    -0.5180 ca         1 K8K      -0.095500
      6 C26          6.7030     2.3660    -0.2990 ca         1 K8K      -0.106000
      7 C28          5.4680     1.1030     1.3360 ca         1 K8K      -0.095500
      8 N19          2.5190    -2.6340    -0.7940 na         1 K8K      -0.145700
      9 N20          3.7930    -2.7030    -0.4270 nd         1 K8K      -0.521800
     10 C18          1.9050    -1.6510    -0.1360 cd         1 K8K       0.362000
     11 C11         -1.6540     0.9620     1.6260 c3         1 K8K      -0.077400
     12 C25          6.9740     1.1910    -0.9900 ca         1 K8K      -0.112000
     13 N07         -2.8090     1.1290    -1.2850 ns         1 K8K      -0.154000
     14 C27          5.9490     2.3180     0.8650 ca         1 K8K      -0.112000
     15 C06         -3.9360     0.7310    -0.5490 ca         1 K8K      -0.095000
     16 C12         -2.9430     1.7760     1.4860 c3         1 K8K      -0.035100
     17 C04         -4.9740     0.0550    -1.1760 ca         1 K8K       0.187000
     18 C03         -6.1110    -0.3490    -0.5080 ca         1 K8K      -0.182000
     19 C14         -5.1720     0.5960     1.5150 ca         1 K8K      -0.151000
     20 C02         -6.1770    -0.0710     0.8430 ca         1 K8K       0.194000
     21 N15          0.0230    -0.3520     0.4660 ns         1 K8K      -0.466900
     22 O17         -0.2020    -1.9360    -1.1430 o          1 K8K      -0.596100
     23 N29          2.7580    -1.0580     0.6680 nc         1 K8K      -0.693000
     24 C23          5.7360    -0.0780     0.6510 ca         1 K8K      -0.083300
     25 C08         -1.5180     0.9390    -0.9120 c          1 K8K       0.559000
     26 H1          -2.0000    -0.7230     0.3440 h1         1 K8K       0.092700
     27 H2           5.0190    -1.3530     2.2180 hc         1 K8K       0.067700
     28 H3           5.9070    -2.1970     0.9580 hc         1 K8K       0.067700
     29 H5           7.0790     3.3120    -0.6650 ha         1 K8K       0.111000
     30 H6           4.8810     1.0740     2.2470 ha         1 K8K       0.114000
     31 H7           2.1340    -3.2730    -1.4750 hn         1 K8K       0.400000
     32 H8          -1.7310     0.2730     2.4680 hc         1 K8K       0.060200
     33 H9          -0.8330     1.6490     1.8400 hc         1 K8K       0.060200
     34 H10          7.5650     1.2190    -1.8970 ha         1 K8K       0.111500
     35 H11         -2.9560     1.6200    -2.1570 hn         1 K8K       0.171000
     36 H12          5.7360     3.2290     1.4110 ha         1 K8K       0.111500
     37 H13         -2.7360     2.6830     0.9110 hc         1 K8K       0.063700
     38 H14         -3.2640     2.1040     2.4740 hc         1 K8K       0.063700
     39 H15         -6.9060    -0.8730    -1.0220 ha         1 K8K       0.156000
     40 H16         -5.2690     0.8060     2.5720 ha         1 K8K       0.140000
     41 H17          0.6830     0.1300     1.0590 hn         1 K8K       0.351500
     42 F01         -7.2630    -0.4610     1.5210 f          1 K8K      -0.167000
     43 C16          0.4720    -1.3270    -0.3290 c          1 K8K       0.544600
     44 F05         -4.8640    -0.2050    -2.4820 f          1 K8K      -0.161000
     45 O09         -0.5880     1.3670    -1.5650 o          1 K8K      -0.525000
     46 H4           6.7070    -0.9340    -1.0610 ha         1 K8K       0.114000
@<TRIPOS>BOND
     1     1    11 1   
     2     1    21 1   
     3     1    25 1   
     4     1    26 1   
     5     2    15 ar  
     6     2    16 1   
     7     2    19 ar  
     8     3     4 1   
     9     3     9 2   
    10     3    23 1   
    11     4    24 1   
    12     4    27 1   
    13     4    28 1   
    14     5    12 ar  
    15     5    24 ar  
    16     5    46 1   
    17     6    12 ar  
    18     6    14 ar  
    19     6    29 1   
    20     7    14 ar  
    21     7    24 ar  
    22     7    30 1   
    23     8     9 1   
    24     8    10 1   
    25     8    31 1   
    26    10    23 2   
    27    10    43 1   
    28    11    16 1   
    29    11    32 1   
    30    11    33 1   
    31    12    34 1   
    32    13    15 1   
    33    13    25 1   
    34    13    35 1   
    35    14    36 1   
    36    15    17 ar  
    37    16    37 1   
    38    16    38 1   
    39    17    18 ar  
    40    17    44 1   
    41    18    20 ar  
    42    18    39 1   
    43    19    20 ar  
    44    19    40 1   
    45    20    42 1   
    46    21    41 1   
    47    21    43 1   
    48    22    43 2   
    49    25    45 2   
@<TRIPOS>SUBSTRUCTURE
     1 K8K         1 TEMP              0 ****  ****    0 ROOT
