@<TRIPOS>MOLECULE
K8K
   46    49     1     0     0
SMALL
No Charge or Current Charge


@<TRIPOS>ATOM
      1 C10         -1.4060     0.0810     0.6420 c3         1 K8K       0.034700
      2 C13         -4.4010     0.3680     0.8480 ca         1 K8K      -0.052300
      3 C21          4.0870    -1.1260     1.0810 cc         1 K8K       0.536300
      4 C22          5.2750    -0.2780     1.4520 c3         1 K8K      -0.046400
      5 C24          6.9900    -0.2240    -0.4280 ca         1 K8K      -0.095500
      6 C26          7.1220     1.6520    -1.9740 ca         1 K8K      -0.106000
      7 C28          5.4630     1.6550    -0.1930 ca         1 K8K      -0.095500
      8 N19          2.8630    -2.7110     0.5170 na         1 K8K      -0.145700
      9 N20          4.1820    -2.4060     0.7740 nd         1 K8K      -0.521800
     10 C18          2.0580    -1.5950     0.6860 cd         1 K8K       0.362000
     11 C11         -2.1920    -0.5080     1.8440 c3         1 K8K      -0.077400
     12 C25          7.5870     0.4000    -1.5380 ca         1 K8K      -0.112000
     13 N07         -2.7940     2.0430    -0.0060 ns         1 K8K      -0.154000
     14 C27          6.0590     2.2790    -1.3020 ca         1 K8K      -0.112000
     15 C06         -4.0180     1.3290    -0.1200 ca         1 K8K      -0.095000
     16 C12         -3.5690     0.1410     2.1080 c3         1 K8K      -0.035100
     17 C04         -4.8680     1.5930    -1.2140 ca         1 K8K       0.187000
     18 C03         -6.0700     0.8910    -1.3730 ca         1 K8K      -0.182000
     19 C14         -5.6140    -0.3310     0.6800 ca         1 K8K      -0.151000
     20 C02         -6.4350    -0.0740    -0.4270 ca         1 K8K       0.194000
     21 N15          0.0280    -0.2760     0.7320 ns         1 K8K      -0.466900
     22 O17         -0.1390    -2.4820     0.1560 o          1 K8K      -0.596100
     23 N29          2.8390    -0.5810     1.0490 nc         1 K8K      -0.693000
     24 C23          5.9260     0.4010     0.2520 ca         1 K8K      -0.083300
     25 C08         -1.5760     1.6210     0.4980 c          1 K8K       0.559000
     26 H1          -1.8120    -0.3550    -0.2810 h1         1 K8K       0.092700
     27 H2           4.9630     0.4760     2.1840 hc         1 K8K       0.067700
     28 H3           6.0090    -0.9010     1.9750 hc         1 K8K       0.067700
     29 H5           7.5840     2.1350    -2.8330 ha         1 K8K       0.111000
     30 H6           4.6380     2.1450     0.3200 ha         1 K8K       0.114000
     31 H7           2.5450    -3.6380     0.2410 hn         1 K8K       0.400000
     32 H8          -2.3300    -1.5840     1.6800 hc         1 K8K       0.060200
     33 H9          -1.5910    -0.4080     2.7560 hc         1 K8K       0.060200
     34 H10          8.4080    -0.0860    -2.0580 ha         1 K8K       0.111500
     35 H11         -2.8440     3.0250    -0.2470 hn         1 K8K       0.171000
     36 H12          5.6970     3.2470    -1.6400 ha         1 K8K       0.111500
     37 H13         -3.4180     1.1000     2.6190 hc         1 K8K       0.063700
     38 H14         -4.1140    -0.4840     2.8260 hc         1 K8K       0.063700
     39 H15         -6.7140     1.0930    -2.2240 ha         1 K8K       0.156000
     40 H16         -5.9300    -1.0690     1.4140 ha         1 K8K       0.140000
     41 H17          0.6980     0.4450     0.9910 hn         1 K8K       0.351500
     42 F01         -7.5950    -0.7510    -0.5740 f          1 K8K      -0.167000
     43 C16          0.5610    -1.5310     0.4940 c          1 K8K       0.544600
     44 F05         -4.5190     2.5180    -2.1360 f          1 K8K      -0.161000
     45 O09         -0.6700     2.4150     0.7290 o          1 K8K      -0.525000
     46 H4           7.3550    -1.1950    -0.0990 ha         1 K8K       0.114000
@<TRIPOS>BOND
     1     1    11 1   
     2     1    21 1   
     3     1    25 1   
     4     1    26 1   
     5     2    15 ar  
     6     2    16 1   
     7     2    19 ar  
     8     3     4 1   
     9     3     9 2   
    10     3    23 1   
    11     4    24 1   
    12     4    27 1   
    13     4    28 1   
    14     5    12 ar  
    15     5    24 ar  
    16     5    46 1   
    17     6    12 ar  
    18     6    14 ar  
    19     6    29 1   
    20     7    14 ar  
    21     7    24 ar  
    22     7    30 1   
    23     8     9 1   
    24     8    10 1   
    25     8    31 1   
    26    10    23 2   
    27    10    43 1   
    28    11    16 1   
    29    11    32 1   
    30    11    33 1   
    31    12    34 1   
    32    13    15 1   
    33    13    25 1   
    34    13    35 1   
    35    14    36 1   
    36    15    17 ar  
    37    16    37 1   
    38    16    38 1   
    39    17    18 ar  
    40    17    44 1   
    41    18    20 ar  
    42    18    39 1   
    43    19    20 ar  
    44    19    40 1   
    45    20    42 1   
    46    21    41 1   
    47    21    43 1   
    48    22    43 2   
    49    25    45 2   
@<TRIPOS>SUBSTRUCTURE
     1 K8K         1 TEMP              0 ****  ****    0 ROOT
