@<TRIPOS>MOLECULE
K8M
   52    55     1     0     0
SMALL
abcg2


@<TRIPOS>ATOM
      1 C10         -5.2880     2.0450    -0.1230 ca         1 K8M      -0.140500
      2 C17          3.4450    -1.5480     1.8580 ca         1 K8M      -0.125000
      3 C20          5.5690    -0.6190     1.1630 ca         1 K8M      -0.123000
      4 C21          4.9120     0.4510     0.5570 cp         1 K8M      -0.017000
      5 C22          5.6850     1.4970    -0.1400 cp         1 K8M      -0.003000
      6 C24          6.0490     3.7730    -0.7920 ca         1 K8M       0.335900
      7 C26          7.5370     2.2090    -1.4830 ca         1 K8M       0.335900
      8 C28          3.5220     0.5200     0.6180 ca         1 K8M      -0.067000
      9 C02         -3.0310    -0.8670    -0.1040 c          1 K8M       0.612100
     10 C04         -4.9760     0.6850    -0.0720 ca         1 K8M      -0.021000
     11 C05         -6.0110    -0.2400     0.0660 ca         1 K8M      -0.140500
     12 C06         -7.3250     0.1980     0.1490 ca         1 K8M      -0.075500
     13 C07         -7.6160     1.5500     0.0960 ca         1 K8M       0.094000
     14 C09         -6.5980     2.4810    -0.0400 ca         1 K8M      -0.075500
     15 C11         -1.5180    -0.8340    -0.2300 c6         1 K8M      -0.172700
     16 C12         -0.8890    -1.3280     1.0810 c6         1 K8M       0.089000
     17 C16          2.7960    -0.4790     1.2500 ca         1 K8M      -0.121600
     18 C18          4.8240    -1.5860     1.8040 ca         1 K8M       0.168000
     19 C23          5.2850     2.8310    -0.1220 ca         1 K8M      -0.152000
     20 C27          6.8460     1.1910    -0.8460 ca         1 K8M      -0.152000
     21 C29          0.9870    -2.3350    -0.0640 c6         1 K8M       0.044000
     22 C30          0.4280    -1.8820    -1.4030 c6         1 K8M       0.154000
     23 C33         -1.0750    -1.7300    -1.3920 c6         1 K8M      -0.122400
     24 F19          5.4620    -2.6000     2.4020 f          1 K8M      -0.172000
     25 F31          0.8070    -2.7660    -2.3690 f          1 K8M      -0.114000
     26 F32          1.0160    -0.6880    -1.7310 f          1 K8M      -0.114000
     27 N03         -3.6220     0.3490    -0.1700 ns         1 K8M      -0.138000
     28 N13          0.5560    -1.3970     0.9530 n          1 K8M      -0.391800
     29 N25          7.1570     3.4810    -1.4640 nb         1 K8M      -0.657000
     30 O01         -3.6300    -1.9150     0.0560 o          1 K8M      -0.578100
     31 O15          0.8290     0.6760     1.8230 o          1 K8M      -0.571100
     32 CL08        -9.2610     2.0840     0.2000 cl         1 K8M      -0.199000
     33 H1          -4.4980     2.7790    -0.2270 ha         1 K8M       0.133500
     34 H2           2.8960    -2.3290     2.3690 ha         1 K8M       0.142000
     35 H3           6.6490    -0.6910     1.1560 ha         1 K8M       0.139000
     36 H4           5.7490     4.8150    -0.7780 h4         1 K8M       0.022100
     37 H5           8.4400     1.9800    -2.0390 h4         1 K8M       0.022100
     38 H6           3.0000     1.3410     0.1440 ha         1 K8M       0.137000
     39 H7          -5.8160    -1.2980     0.1070 ha         1 K8M       0.133500
     40 H8          -8.1190    -0.5290     0.2540 ha         1 K8M       0.131500
     41 H9          -6.8150     3.5400    -0.0810 ha         1 K8M       0.131500
     42 H10         -1.1790     0.1900    -0.4110 hc         1 K8M       0.077700
     43 H11         -1.1530    -0.6780     1.9110 h1         1 K8M       0.082700
     44 H12         -1.2510    -2.3330     1.3110 h1         1 K8M       0.082700
     45 H13          4.4040     3.1480     0.4180 ha         1 K8M       0.127000
     46 H14          7.2060     0.1740    -0.9230 ha         1 K8M       0.127000
     47 H15          0.6030    -3.3290     0.1740 h1         1 K8M       0.087700
     48 H16          2.0720    -2.4030    -0.1200 h1         1 K8M       0.087700
     49 H17         -1.5100    -2.7250    -1.2730 hc         1 K8M       0.085700
     50 H18         -1.4170    -1.3290    -2.3490 hc         1 K8M       0.085700
     51 H19         -3.0030     1.1350    -0.3030 hn         1 K8M       0.157000
     52 C14          1.3090    -0.3380     1.3490 c          1 K8M       0.617700
@<TRIPOS>BOND
     1     1    10 ar  
     2     1    14 ar  
     3     1    33 1   
     4     2    17 ar  
     5     2    18 ar  
     6     2    34 1   
     7     3     4 ar  
     8     3    18 ar  
     9     3    35 1   
    10     4     5 1   
    11     4     8 ar  
    12     5    19 ar  
    13     5    20 ar  
    14     6    19 ar  
    15     6    29 ar  
    16     6    36 1   
    17     7    20 ar  
    18     7    29 ar  
    19     7    37 1   
    20     8    17 ar  
    21     8    38 1   
    22     9    15 1   
    23     9    27 1   
    24     9    30 2   
    25    10    11 ar  
    26    10    27 1   
    27    11    12 ar  
    28    11    39 1   
    29    12    13 ar  
    30    12    40 1   
    31    13    14 ar  
    32    13    32 1   
    33    14    41 1   
    34    15    16 1   
    35    15    23 1   
    36    15    42 1   
    37    16    28 1   
    38    16    43 1   
    39    16    44 1   
    40    17    52 1   
    41    18    24 1   
    42    19    45 1   
    43    20    46 1   
    44    21    22 1   
    45    21    28 1   
    46    21    47 1   
    47    21    48 1   
    48    22    23 1   
    49    22    25 1   
    50    22    26 1   
    51    23    49 1   
    52    23    50 1   
    53    27    51 1   
    54    28    52 1   
    55    31    52 2   
@<TRIPOS>SUBSTRUCTURE
     1 K8M         1 TEMP              0 ****  ****    0 ROOT
