@<TRIPOS>MOLECULE
K8M
   52    55     1     0     0
SMALL
No Charge or Current Charge


@<TRIPOS>ATOM
      1 C10         -5.3880     1.9600    -0.5750 ca         1 K8M      -0.140500
      2 C17          3.5240    -1.5910     1.3760 ca         1 K8M      -0.125000
      3 C20          5.7160    -0.6420     0.9090 ca         1 K8M      -0.123000
      4 C21          5.1300     0.5750     0.4840 cp         1 K8M      -0.017000
      5 C22          5.9770     1.7200     0.0200 cp         1 K8M      -0.003000
      6 C24          6.4270     4.1110    -0.2110 ca         1 K8M       0.335900
      7 C26          7.9650     2.6190    -1.0810 ca         1 K8M       0.335900
      8 C28          3.7150     0.6740     0.5130 ca         1 K8M      -0.067000
      9 C02         -3.2530    -1.0650     0.1590 c          1 K8M       0.612100
     10 C04         -5.1490     0.6590    -0.0890 ca         1 K8M      -0.021000
     11 C05         -6.2210    -0.0630     0.4840 ca         1 K8M      -0.140500
     12 C06         -7.5030     0.5110     0.5660 ca         1 K8M      -0.075500
     13 C07         -7.7260     1.8080     0.0770 ca         1 K8M       0.094000
     14 C09         -6.6700     2.5330    -0.4930 ca         1 K8M      -0.075500
     15 C11         -1.7500    -1.2020    -0.1610 c6         1 K8M      -0.172700
     16 C12         -0.8810    -1.3200     1.1150 c6         1 K8M       0.089000
     17 C16          2.9000    -0.4010     0.9330 ca         1 K8M      -0.121600
     18 C18          4.9200    -1.7060     1.3550 ca         1 K8M       0.168000
     19 C23          5.6020     3.0670     0.2390 ca         1 K8M      -0.152000
     20 C27          7.2010     1.5180    -0.6620 ca         1 K8M      -0.152000
     21 C29          0.9220    -2.4600    -0.1750 c6         1 K8M       0.044000
     22 C30          0.0890    -2.3760    -1.4800 c6         1 K8M       0.154000
     23 C33         -1.4330    -2.2940    -1.2230 c6         1 K8M      -0.122400
     24 F19          5.5040    -2.8480     1.7780 f          1 K8M      -0.172000
     25 F31          0.3640    -3.4970    -2.2820 f          1 K8M      -0.114000
     26 F32          0.4990    -1.2510    -2.2200 f          1 K8M      -0.114000
     27 N03         -3.8270     0.1480    -0.2070 ns         1 K8M      -0.138000
     28 N13          0.5730    -1.3670     0.7890 n          1 K8M      -0.391800
     29 N25          7.5930     3.9010    -0.8630 nb         1 K8M      -0.657000
     30 O01         -3.8600    -1.9830     0.6980 o          1 K8M      -0.578100
     31 O15          0.9040     0.8650     1.2190 o          1 K8M      -0.571100
     32 Cl08        -9.3300     2.5230     0.1800 cl         1 K8M      -0.199000
     33 H1          -4.5770     2.5340    -1.0200 ha         1 K8M       0.133500
     34 H2           2.9330    -2.4220     1.7550 ha         1 K8M       0.142000
     35 H3           6.7960    -0.7580     0.9180 ha         1 K8M       0.139000
     36 H4           6.1470     5.1510    -0.0420 h4         1 K8M       0.022100
     37 H5           8.9060     2.4710    -1.6110 h4         1 K8M       0.022100
     38 H6           3.2400     1.5940     0.1790 ha         1 K8M       0.137000
     39 H7          -6.0860    -1.0680     0.8720 ha         1 K8M       0.133500
     40 H8          -8.3230    -0.0490     1.0070 ha         1 K8M       0.131500
     41 H9          -6.8440     3.5380    -0.8720 ha         1 K8M       0.131500
     42 H10         -1.4630    -0.2450    -0.6200 hc         1 K8M       0.077700
     43 H11         -1.0970    -0.4820     1.7950 h1         1 K8M       0.082700
     44 H12         -1.1510    -2.2400     1.6560 h1         1 K8M       0.082700
     45 H13          4.6860     3.3120     0.7680 ha         1 K8M       0.127000
     46 H14          7.5560     0.5170    -0.8840 ha         1 K8M       0.127000
     47 H15          0.7440    -3.4320     0.3060 h1         1 K8M       0.087700
     48 H16          1.9830    -2.4250    -0.4530 h1         1 K8M       0.087700
     49 H17         -1.7940    -3.2700    -0.8670 hc         1 K8M       0.085700
     50 H18         -1.9660    -2.0890    -2.1630 hc         1 K8M       0.085700
     51 H19         -3.1800     0.7930    -0.6420 hn         1 K8M       0.157000
     52 C14          1.3950    -0.2280     0.9620 c          1 K8M       0.617700
@<TRIPOS>BOND
     1     1    10 ar  
     2     1    14 ar  
     3     1    33 1   
     4     2    17 ar  
     5     2    18 ar  
     6     2    34 1   
     7     3     4 ar  
     8     3    18 ar  
     9     3    35 1   
    10     4     5 1   
    11     4     8 ar  
    12     5    19 ar  
    13     5    20 ar  
    14     6    19 ar  
    15     6    29 ar  
    16     6    36 1   
    17     7    20 ar  
    18     7    29 ar  
    19     7    37 1   
    20     8    17 ar  
    21     8    38 1   
    22     9    15 1   
    23     9    27 1   
    24     9    30 2   
    25    10    11 ar  
    26    10    27 1   
    27    11    12 ar  
    28    11    39 1   
    29    12    13 ar  
    30    12    40 1   
    31    13    14 ar  
    32    13    32 1   
    33    14    41 1   
    34    15    16 1   
    35    15    23 1   
    36    15    42 1   
    37    16    28 1   
    38    16    43 1   
    39    16    44 1   
    40    17    52 1   
    41    18    24 1   
    42    19    45 1   
    43    20    46 1   
    44    21    22 1   
    45    21    28 1   
    46    21    47 1   
    47    21    48 1   
    48    22    23 1   
    49    22    25 1   
    50    22    26 1   
    51    23    49 1   
    52    23    50 1   
    53    27    51 1   
    54    28    52 1   
    55    31    52 2   
@<TRIPOS>SUBSTRUCTURE
     1 K8M         1 TEMP              0 ****  ****    0 ROOT
