@<TRIPOS>MOLECULE
K8N
   54    58     1     0     0
SMALL
No Charge or Current Charge


@<TRIPOS>ATOM
      1 N1         -38.8960   -34.6730    -3.4080 nv         1 K8N      -1.075900
      2 C1         -37.5450   -34.7290    -3.3120 ca         1 K8N       0.432900
      3 N2         -36.9220   -33.5840    -3.0020 nb         1 K8N      -0.304000
      4 C2         -35.5720   -33.6490    -2.9160 ca         1 K8N       0.177900
      5 N3         -34.7980   -34.7440    -3.1110 nb         1 K8N      -0.226000
      6 C3         -35.4480   -35.8850    -3.4240 ca         1 K8N       0.161500
      7 C4         -36.8170   -35.9030    -3.5290 ca         1 K8N      -0.262800
      8 C5         -37.2290   -37.2320    -3.8670 cc         1 K8N      -0.204200
      9 C6         -36.0720   -37.9870    -3.9580 cd         1 K8N      -0.184100
     10 N4         -34.9510   -37.1610    -3.6820 na         1 K8N      -0.172400
     11 C7         -33.5430   -37.5800    -3.6670 c5         1 K8N       0.084300
     12 C8         -33.0390   -38.2160    -4.9870 c5         1 K8N      -0.085400
     13 C9         -31.5940   -38.6420    -4.5870 c5         1 K8N      -0.065700
     14 C10        -30.9410   -39.6880    -5.5260 c3         1 K8N      -0.071400
     15 C11        -30.7510   -39.2150    -6.9850 c3         1 K8N      -0.035100
     16 C12        -30.0600   -40.2690    -7.8400 ca         1 K8N      -0.052300
     17 C13        -28.6620   -40.2630    -7.9810 ca         1 K8N      -0.127000
     18 C14        -28.0260   -41.2380    -8.7650 ca         1 K8N      -0.066000
     19 C15        -28.7880   -42.2290    -9.4120 ca         1 K8N      -0.137000
     20 C16        -28.1510   -43.2070   -10.1990 ca         1 K8N       0.004000
     21 C17        -28.9510   -44.1730   -10.8230 ca         1 K8N      -0.125900
     22 Br1        -28.1450   -45.5330   -11.9150 br         1 K8N      -0.089100
     23 C18        -30.3390   -44.1070   -10.6190 ca         1 K8N       0.644900
     24 N5         -31.2260   -44.9510   -11.1560 nv         1 K8N      -1.057900
     25 N6         -30.9620   -43.1920    -9.8870 nb         1 K8N      -0.768000
     26 C19        -30.2010   -42.2520    -9.2780 ca         1 K8N       0.342000
     27 C20        -30.8170   -41.2640    -8.4880 ca         1 K8N      -0.106000
     28 C21        -31.7400   -39.1200    -3.0960 c5         1 K8N       0.140300
     29 O1         -30.8260   -38.4310    -2.2460 oh         1 K8N      -0.655000
     30 C22        -33.2140   -38.7560    -2.7050 c5         1 K8N       0.111300
     31 O2         -33.3330   -38.4090    -1.3160 oh         1 K8N      -0.640000
     32 H1         -39.3280   -33.7550    -3.4730 hn         1 K8N       0.495000
     33 H2         -39.3730   -35.4330    -3.8840 hn         1 K8N       0.495000
     34 H3         -35.0530   -32.7250    -2.6640 h5         1 K8N       0.042100
     35 H4         -38.2420   -37.6010    -4.0240 ha         1 K8N       0.200000
     36 H5         -35.9650   -39.0430    -4.1950 h4         1 K8N       0.213000
     37 H6         -32.9190   -36.7110    -3.4140 h1         1 K8N       0.118700
     38 H7         -33.0460   -37.4990    -5.8160 hc         1 K8N       0.059200
     39 H8         -33.6510   -39.0730    -5.2930 hc         1 K8N       0.059200
     40 H9         -30.9420   -37.7600    -4.6250 hc         1 K8N       0.078700
     41 H10        -31.5420   -40.6060    -5.5300 hc         1 K8N       0.044700
     42 H11        -29.9590   -39.9670    -5.1230 hc         1 K8N       0.044700
     43 H12        -30.1680   -38.2850    -6.9900 hc         1 K8N       0.052700
     44 H13        -31.7270   -38.9660    -7.4190 hc         1 K8N       0.052700
     45 H14        -28.0650   -39.5020    -7.4820 ha         1 K8N       0.116000
     46 H15        -26.9420   -41.2220    -8.8670 ha         1 K8N       0.116000
     47 H16        -27.0710   -43.2160   -10.3230 ha         1 K8N       0.132000
     48 H17        -32.1800   -44.6130   -11.1340 hn         1 K8N       0.486500
     49 H18        -30.9400   -45.4460   -11.9930 hn         1 K8N       0.486500
     50 H19        -31.8980   -41.2760    -8.3780 ha         1 K8N       0.128000
     51 H20        -31.5910   -40.2060    -3.0080 h1         1 K8N       0.042700
     52 H21        -31.3810   -38.2060    -1.4610 ho         1 K8N       0.459000
     53 H22        -33.8690   -39.6110    -2.9250 h1         1 K8N       0.042700
     54 H23        -34.2760   -38.1730    -1.1630 ho         1 K8N       0.447000
@<TRIPOS>BOND
     1     1     2 1   
     2     1    32 1   
     3     1    33 1   
     4     2     3 ar  
     5     2     7 ar  
     6     3     4 ar  
     7     4     5 ar  
     8     4    34 1   
     9     5     6 ar  
    10     6     7 ar  
    11     6    10 1   
    12     7     8 1   
    13     8     9 2   
    14     8    35 1   
    15     9    10 1   
    16     9    36 1   
    17    10    11 1   
    18    11    12 1   
    19    11    30 1   
    20    11    37 1   
    21    12    13 1   
    22    12    38 1   
    23    12    39 1   
    24    13    14 1   
    25    13    28 1   
    26    13    40 1   
    27    14    15 1   
    28    14    41 1   
    29    14    42 1   
    30    15    16 1   
    31    15    43 1   
    32    15    44 1   
    33    16    17 ar  
    34    16    27 ar  
    35    17    18 ar  
    36    17    45 1   
    37    18    19 ar  
    38    18    46 1   
    39    19    20 ar  
    40    19    26 ar  
    41    20    21 ar  
    42    20    47 1   
    43    21    22 1   
    44    21    23 ar  
    45    23    24 1   
    46    23    25 ar  
    47    24    48 1   
    48    24    49 1   
    49    25    26 ar  
    50    26    27 ar  
    51    27    50 1   
    52    28    29 1   
    53    28    30 1   
    54    28    51 1   
    55    29    52 1   
    56    30    31 1   
    57    30    53 1   
    58    31    54 1   
@<TRIPOS>SUBSTRUCTURE
     1 K8N         1 TEMP              0 ****  ****    0 ROOT
