@<TRIPOS>MOLECULE
K8N
   54    58     1     0     0
SMALL
abcg2


@<TRIPOS>ATOM
      1 N1         -38.9850   -35.9620    -4.3810 nv         1 K8N      -1.075900
      2 C1         -37.7410   -35.7710    -3.9210 ca         1 K8N       0.432900
      3 N2         -37.5190   -34.7310    -3.1120 nb         1 K8N      -0.304000
      4 C2         -36.2880   -34.5490    -2.6350 ca         1 K8N       0.177900
      5 N3         -35.2120   -35.2770    -2.8520 nb         1 K8N      -0.226000
      6 C3         -35.4450   -36.3150    -3.6610 ca         1 K8N       0.161500
      7 C4         -36.6760   -36.6350    -4.2420 ca         1 K8N      -0.262800
      8 C5         -36.4780   -37.8050    -5.0320 cc         1 K8N      -0.204200
      9 C6         -35.1620   -38.1330    -4.8970 cd         1 K8N      -0.184100
     10 N4         -34.5310   -37.2310    -4.0690 na         1 K8N      -0.172400
     11 C7         -33.1420   -37.2650    -3.6700 c5         1 K8N       0.084300
     12 C8         -32.1410   -37.2270    -4.8320 c5         1 K8N      -0.085400
     13 C9         -30.9160   -38.0580    -4.3690 c5         1 K8N      -0.065700
     14 C10        -30.6670   -39.2860    -5.2430 c3         1 K8N      -0.071400
     15 C11        -30.2650   -38.9300    -6.6740 c3         1 K8N      -0.035100
     16 C12        -29.9750   -40.1570    -7.4900 ca         1 K8N      -0.052300
     17 C13        -28.7090   -40.7780    -7.3890 ca         1 K8N      -0.127000
     18 C14        -28.4260   -41.9140    -8.0980 ca         1 K8N      -0.066000
     19 C15        -29.4020   -42.4860    -8.9390 ca         1 K8N      -0.137000
     20 C16        -29.1740   -43.6540    -9.7010 ca         1 K8N       0.004000
     21 C17        -30.1650   -44.1460   -10.4890 ca         1 K8N      -0.125900
     22 BR1        -29.8760   -45.7180   -11.4890 br         1 K8N      -0.089100
     23 C18        -31.4320   -43.4720   -10.5460 ca         1 K8N       0.644900
     24 N5         -32.4560   -43.9570   -11.2860 nv         1 K8N      -1.057900
     25 N6         -31.6450   -42.3840    -9.8430 nb         1 K8N      -0.768000
     26 C19        -30.6750   -41.8830    -9.0480 ca         1 K8N       0.342000
     27 C20        -30.9330   -40.7100    -8.3060 ca         1 K8N      -0.106000
     28 C21        -31.2260   -38.4520    -2.9200 c5         1 K8N       0.140300
     29 O1         -30.7610   -37.4350    -2.0620 oh         1 K8N      -0.655000
     30 C22        -32.7540   -38.5180    -2.8930 c5         1 K8N       0.111300
     31 O2         -33.3230   -38.5010    -1.6120 oh         1 K8N      -0.640000
     32 H1         -39.6910   -35.2690    -4.2010 hn         1 K8N       0.495000
     33 H2         -39.1810   -36.6510    -5.0840 hn         1 K8N       0.495000
     34 H3         -36.1630   -33.6880    -1.9860 h5         1 K8N       0.042100
     35 H4         -37.2020   -38.3390    -5.6270 ha         1 K8N       0.200000
     36 H5         -34.6180   -38.9530    -5.3380 h4         1 K8N       0.213000
     37 H6         -32.9970   -36.4000    -3.0220 h1         1 K8N       0.118700
     38 H7         -31.8770   -36.2030    -5.0900 hc         1 K8N       0.059200
     39 H8         -32.5880   -37.6630    -5.7300 hc         1 K8N       0.059200
     40 H9         -30.0090   -37.4480    -4.3840 hc         1 K8N       0.078700
     41 H10        -31.5580   -39.9240    -5.2660 hc         1 K8N       0.044700
     42 H11        -29.8720   -39.8870    -4.7910 hc         1 K8N       0.044700
     43 H12        -29.3790   -38.2890    -6.6470 hc         1 K8N       0.052700
     44 H13        -31.0570   -38.3500    -7.1550 hc         1 K8N       0.052700
     45 H14        -27.9540   -40.3410    -6.7470 ha         1 K8N       0.116000
     46 H15        -27.4510   -42.3800    -8.0240 ha         1 K8N       0.116000
     47 H16        -28.2090   -44.1440    -9.6470 ha         1 K8N       0.132000
     48 H17        -33.2500   -43.3470   -11.3950 hn         1 K8N       0.486500
     49 H18        -32.2780   -44.5610   -12.0690 hn         1 K8N       0.486500
     50 H19        -31.9100   -40.2500    -8.3970 ha         1 K8N       0.128000
     51 H20        -30.7780   -39.4210    -2.6570 h1         1 K8N       0.042700
     52 H21        -31.2150   -37.5320    -1.2170 ho         1 K8N       0.459000
     53 H22        -33.0700   -39.4090    -3.4550 h1         1 K8N       0.042700
     54 H23        -33.2790   -39.3880    -1.2430 ho         1 K8N       0.447000
@<TRIPOS>BOND
     1     1     2 1   
     2     1    32 1   
     3     1    33 1   
     4     2     3 ar  
     5     2     7 ar  
     6     3     4 ar  
     7     4     5 ar  
     8     4    34 1   
     9     5     6 ar  
    10     6     7 ar  
    11     6    10 1   
    12     7     8 1   
    13     8     9 2   
    14     8    35 1   
    15     9    10 1   
    16     9    36 1   
    17    10    11 1   
    18    11    12 1   
    19    11    30 1   
    20    11    37 1   
    21    12    13 1   
    22    12    38 1   
    23    12    39 1   
    24    13    14 1   
    25    13    28 1   
    26    13    40 1   
    27    14    15 1   
    28    14    41 1   
    29    14    42 1   
    30    15    16 1   
    31    15    43 1   
    32    15    44 1   
    33    16    17 ar  
    34    16    27 ar  
    35    17    18 ar  
    36    17    45 1   
    37    18    19 ar  
    38    18    46 1   
    39    19    20 ar  
    40    19    26 ar  
    41    20    21 ar  
    42    20    47 1   
    43    21    22 1   
    44    21    23 ar  
    45    23    24 1   
    46    23    25 ar  
    47    24    48 1   
    48    24    49 1   
    49    25    26 ar  
    50    26    27 ar  
    51    27    50 1   
    52    28    29 1   
    53    28    30 1   
    54    28    51 1   
    55    29    52 1   
    56    30    31 1   
    57    30    53 1   
    58    31    54 1   
@<TRIPOS>SUBSTRUCTURE
     1 K8N         1 TEMP              0 ****  ****    0 ROOT
