@<TRIPOS>MOLECULE
K8O
   36    37     1     0     0
SMALL
abcg2


@<TRIPOS>ATOM
      1 C13         59.1340    29.4770  -185.3730 c6         1 K8O      -0.126900
      2 C14         57.9120    28.6200  -185.1550 c6         1 K8O       0.180000
      3 C15         58.0010    27.3100  -185.8990 c6         1 K8O      -0.126900
      4 C16         59.3140    26.6060  -185.5840 c6         1 K8O       0.163300
      5 C12         60.4000    28.6840  -185.0780 c6         1 K8O       0.163300
      6 C02         66.9780    28.8080  -188.0790 ca         1 K8O       0.604900
      7 C03         67.0830    30.2100  -187.9880 ca         1 K8O      -0.228000
      8 C04         66.0590    30.9310  -187.4120 ca         1 K8O      -0.000300
      9 C05         64.9460    30.2290  -186.9350 ca         1 K8O      -0.199000
     10 C06         64.9290    28.8510  -187.0720 ca         1 K8O       0.520000
     11 C08         63.8000    28.1060  -186.5980 cg         1 K8O      -0.210000
     12 C09         62.8440    27.4940  -186.1950 c1         1 K8O      -0.108100
     13 F17         57.7620    28.3730  -183.8110 f          1 K8O      -0.124500
     14 F18         56.7790    29.3000  -185.5180 f          1 K8O      -0.124500
     15 N01         65.9180    28.1450  -187.6320 nb         1 K8O      -0.735000
     16 N02         67.9960    28.0700  -188.6020 nv         1 K8O      -1.058900
     17 N11         60.4450    27.4700  -185.8760 n3         1 K8O      -0.714600
     18 H1          59.1460    29.8050  -186.4150 hc         1 K8O       0.074700
     19 H2          59.0940    30.3680  -184.7430 hc         1 K8O       0.074700
     20 H3          57.9490    27.5170  -186.9700 hc         1 K8O       0.074700
     21 H4          57.1570    26.6650  -185.6430 hc         1 K8O       0.074700
     22 H5          59.3180    26.2670  -184.5350 h1         1 K8O       0.044950
     23 H6          59.3850    25.7080  -186.2010 h1         1 K8O       0.044950
     24 H7          60.4660    28.4630  -184.0000 h1         1 K8O       0.044950
     25 H8          61.2640    29.3050  -185.3220 h1         1 K8O       0.044950
     26 H9          61.6300    25.8020  -186.2380 h1         1 K8O       0.053200
     27 H10         61.8730    26.4860  -184.6400 h1         1 K8O       0.053200
     28 H11         67.9640    30.7100  -188.3710 ha         1 K8O       0.120000
     29 H12         64.1150    30.7450  -186.4730 ha         1 K8O       0.127000
     30 H13         65.2700    32.8880  -187.7870 hc         1 K8O       0.048033
     31 H14         66.0920    32.7280  -186.2460 hc         1 K8O       0.048033
     32 H15         67.0330    32.8230  -187.7360 hc         1 K8O       0.048033
     33 H16         67.7740    27.1280  -188.8790 hn         1 K8O       0.473000
     34 H17         68.6590    28.5350  -189.2000 hn         1 K8O       0.473000
     35 C10         61.6920    26.7500  -185.6960 c3         1 K8O       0.254900
     36 C07         66.1230    32.4220  -187.2930 c3         1 K8O      -0.053800
@<TRIPOS>BOND
     1     1     2 1   
     2     1     5 1   
     3     1    18 1   
     4     1    19 1   
     5     2     3 1   
     6     2    13 1   
     7     2    14 1   
     8     3     4 1   
     9     3    20 1   
    10     3    21 1   
    11     4    17 1   
    12     4    22 1   
    13     4    23 1   
    14     5    17 1   
    15     5    24 1   
    16     5    25 1   
    17     6     7 ar  
    18     6    15 ar  
    19     6    16 1   
    20     7     8 ar  
    21     7    28 1   
    22     8     9 ar  
    23     8    36 1   
    24     9    10 ar  
    25     9    29 1   
    26    10    11 1   
    27    10    15 ar  
    28    11    12 3   
    29    12    35 1   
    30    16    33 1   
    31    16    34 1   
    32    17    35 1   
    33    26    35 1   
    34    27    35 1   
    35    30    36 1   
    36    31    36 1   
    37    32    36 1   
@<TRIPOS>SUBSTRUCTURE
     1 K8O         1 TEMP              0 ****  ****    0 ROOT
