@<TRIPOS>MOLECULE
K8O
   36    37     1     0     0
SMALL
No Charge or Current Charge


@<TRIPOS>ATOM
      1 C13         59.2370    29.4640  -184.9590 c6         1 K8O      -0.126900
      2 C14         57.9330    28.6440  -184.8960 c6         1 K8O       0.180000
      3 C15         57.9150    27.5040  -185.9320 c6         1 K8O      -0.126900
      4 C16         59.1960    26.6470  -185.8280 c6         1 K8O       0.163300
      5 C12         60.4720    28.5370  -184.8900 c6         1 K8O       0.163300
      6 C02         67.1530    28.8640  -187.7480 ca         1 K8O       0.604900
      7 C03         67.1730    30.2550  -187.8850 ca         1 K8O      -0.228000
      8 C04         65.9940    30.9700  -187.6260 ca         1 K8O      -0.000300
      9 C05         64.8650    30.2290  -187.2420 ca         1 K8O      -0.199000
     10 C06         64.9630    28.8290  -187.1410 ca         1 K8O       0.520000
     11 C08         63.8270    28.0450  -186.7530 cg         1 K8O      -0.210000
     12 C09         62.8540    27.3950  -186.4220 c1         1 K8O      -0.108100
     13 F17         57.7710    28.1120  -183.6030 f          1 K8O      -0.124500
     14 F18         56.8350    29.4940  -185.1150 f          1 K8O      -0.124500
     15 N01         66.1000    28.1460  -187.3930 nb         1 K8O      -0.735000
     16 N02         68.2140    28.0870  -187.9760 nv         1 K8O      -1.058900
     17 N11         60.4230    27.4840  -185.9490 n3         1 K8O      -0.714600
     18 H1          59.2680    30.0370  -185.8960 hc         1 K8O       0.074700
     19 H2          59.2680    30.1940  -184.1410 hc         1 K8O       0.074700
     20 H3          57.8430    27.9260  -186.9440 hc         1 K8O       0.074700
     21 H4          57.0270    26.8730  -185.7900 hc         1 K8O       0.074700
     22 H5          59.1950    26.1090  -184.8680 h1         1 K8O       0.044950
     23 H6          59.1720    25.8860  -186.6220 h1         1 K8O       0.044950
     24 H7          60.5210    28.0740  -183.8930 h1         1 K8O       0.044950
     25 H8          61.3720    29.1610  -184.9970 h1         1 K8O       0.044950
     26 H9          61.5180    25.8300  -186.7210 h1         1 K8O       0.053200
     27 H10         61.8500    26.1930  -185.0250 h1         1 K8O       0.053200
     28 H11         68.0840    30.7660  -188.1820 ha         1 K8O       0.120000
     29 H12         63.9230    30.7240  -187.0250 ha         1 K8O       0.127000
     30 H13         64.9470    32.8240  -188.0560 hc         1 K8O       0.048033
     31 H14         66.1800    32.9600  -186.7910 hc         1 K8O       0.048033
     32 H15         66.6600    32.8480  -188.4930 hc         1 K8O       0.048033
     33 H16         68.0040    27.1000  -188.0730 hn         1 K8O       0.473000
     34 H17         68.9490    28.4550  -188.5680 hn         1 K8O       0.473000
     35 C10         61.6540    26.6510  -186.0040 c3         1 K8O       0.254900
     36 C07         65.9430    32.4830  -187.7490 c3         1 K8O      -0.053800
@<TRIPOS>BOND
     1     1     2 1   
     2     1     5 1   
     3     1    18 1   
     4     1    19 1   
     5     2     3 1   
     6     2    13 1   
     7     2    14 1   
     8     3     4 1   
     9     3    20 1   
    10     3    21 1   
    11     4    17 1   
    12     4    22 1   
    13     4    23 1   
    14     5    17 1   
    15     5    24 1   
    16     5    25 1   
    17     6     7 ar  
    18     6    15 ar  
    19     6    16 1   
    20     7     8 ar  
    21     7    28 1   
    22     8     9 ar  
    23     8    36 1   
    24     9    10 ar  
    25     9    29 1   
    26    10    11 1   
    27    10    15 ar  
    28    11    12 3   
    29    12    35 1   
    30    16    33 1   
    31    16    34 1   
    32    17    35 1   
    33    26    35 1   
    34    27    35 1   
    35    30    36 1   
    36    31    36 1   
    37    32    36 1   
@<TRIPOS>SUBSTRUCTURE
     1 K8O         1 TEMP              0 ****  ****    0 ROOT
