@<TRIPOS>MOLECULE
K8S
   50    53     1     0     0
SMALL
bcc


@<TRIPOS>ATOM
      1 C10         -5.3390     1.5960    -0.0620 ca         1 K8S      -0.159500
      2 C17          3.4190     2.2820     0.7820 ca         1 K8S      -0.072000
      3 C20          5.3710     0.7230    -0.4830 ca         1 K8S      -0.122500
      4 C21          6.3970    -0.0570    -1.1550 cc         1 K8S       0.288200
      5 C22          7.7580     0.0030    -1.1500 cd         1 K8S      -0.248300
      6 C24          7.0950    -1.6370    -2.4910 cc         1 K8S       0.239600
      7 C26          4.0150     0.4370    -0.6500 ca         1 K8S      -0.082000
      8 C28          0.8710    -1.1140     2.1170 c6         1 K8S       0.394600
      9 C02         -2.5680    -0.7820     0.4450 c          1 K8S       0.680100
     10 C04         -4.7360     0.3360    -0.0530 ca         1 K8S       0.072600
     11 C05         -5.4940    -0.7760    -0.4190 ca         1 K8S      -0.159500
     12 C06         -6.8230    -0.6190    -0.7860 ca         1 K8S      -0.093500
     13 C07         -7.4020     0.6370    -0.7900 ca         1 K8S       0.002400
     14 C09         -6.6620     1.7520    -0.4280 ca         1 K8S      -0.093500
     15 C11         -1.1370    -0.4200     0.8010 c6         1 K8S      -0.173700
     16 C12         -0.2610    -0.5720    -0.4520 c6         1 K8S       0.086000
     17 C16          3.0470     1.2120    -0.0230 ca         1 K8S      -0.149600
     18 C18          4.7660     2.5530     0.9740 ca         1 K8S      -0.134000
     19 C19          5.7340     1.7880     0.3470 ca         1 K8S      -0.093000
     20 C23          8.2100    -1.0280    -2.0220 cd         1 K8S      -0.269300
     21 C27          1.6800    -1.2210     0.8330 c6         1 K8S       0.045000
     22 C31         -0.6100    -1.3310     1.9120 c6         1 K8S      -0.120400
     23 F29          1.3570    -2.0040     3.0280 f          1 K8S      -0.236300
     24 F30          1.0860     0.1300     2.6530 f          1 K8S      -0.236300
     25 N03         -3.3900     0.2880     0.3230 ns         1 K8S      -0.465100
     26 N13          1.1280    -0.2940    -0.1340 n          1 K8S      -0.457800
     27 O01         -2.9070    -1.9360     0.2550 o          1 K8S      -0.578100
     28 O15          0.8930     1.8890    -0.6860 o          1 K8S      -0.577100
     29 O25          5.9960    -1.0560    -1.9710 os         1 K8S      -0.327800
     30 CL08        -9.0640     0.8210    -1.2490 cl         1 K8S      -0.110400
     31 H1          -4.7670     2.4720     0.2190 ha         1 K8S       0.151500
     32 H2           2.6670     2.8930     1.2650 ha         1 K8S       0.149000
     33 H3           8.3710     0.6940    -0.5960 ha         1 K8S       0.160000
     34 H4           6.9330    -2.4590    -3.1680 h4         1 K8S       0.055100
     35 H5           3.7060    -0.3870    -1.2820 ha         1 K8S       0.151000
     36 H6          -5.0690    -1.7660    -0.4230 ha         1 K8S       0.151500
     37 H7          -7.3990    -1.4900    -1.0680 ha         1 K8S       0.149000
     38 H8          -7.1070     2.7380    -0.4290 ha         1 K8S       0.149000
     39 H9          -1.0880     0.6220     1.1300 hc         1 K8S       0.079700
     40 H10         -0.3190    -1.5990    -0.8220 h1         1 K8S       0.079700
     41 H11         -0.5940     0.0880    -1.2490 h1         1 K8S       0.079700
     42 H12          5.0650     3.3750     1.6110 ha         1 K8S       0.140000
     43 H13          6.7780     2.0270     0.5010 ha         1 K8S       0.138000
     44 H14          9.2290    -1.2800    -2.2650 ha         1 K8S       0.162000
     45 H15          2.7280    -1.0110     1.0390 h1         1 K8S       0.088200
     46 H16          1.6120    -2.2390     0.4450 h1         1 K8S       0.088200
     47 H17         -0.7630    -2.3760     1.6320 hc         1 K8S       0.085700
     48 H18         -1.1440    -1.1540     2.8480 hc         1 K8S       0.085700
     49 H19         -2.9800     1.1850     0.5330 hn         1 K8S       0.324500
     50 C14          1.5960     0.9750    -0.2890 c          1 K8S       0.684700
@<TRIPOS>BOND
     1     1    10 ar  
     2     1    14 ar  
     3     1    31 1   
     4     2    17 ar  
     5     2    18 ar  
     6     2    32 1   
     7     3     4 1   
     8     3     7 ar  
     9     3    19 ar  
    10     4     5 2   
    11     4    29 1   
    12     5    20 1   
    13     5    33 1   
    14     6    20 2   
    15     6    29 1   
    16     6    34 1   
    17     7    17 ar  
    18     7    35 1   
    19     8    21 1   
    20     8    22 1   
    21     8    23 1   
    22     8    24 1   
    23     9    15 1   
    24     9    25 1   
    25     9    27 2   
    26    10    11 ar  
    27    10    25 1   
    28    11    12 ar  
    29    11    36 1   
    30    12    13 ar  
    31    12    37 1   
    32    13    14 ar  
    33    13    30 1   
    34    14    38 1   
    35    15    16 1   
    36    15    22 1   
    37    15    39 1   
    38    16    26 1   
    39    16    40 1   
    40    16    41 1   
    41    17    50 1   
    42    18    19 ar  
    43    18    42 1   
    44    19    43 1   
    45    20    44 1   
    46    21    26 1   
    47    21    45 1   
    48    21    46 1   
    49    22    47 1   
    50    22    48 1   
    51    25    49 1   
    52    26    50 1   
    53    28    50 2   
@<TRIPOS>SUBSTRUCTURE
     1 K8S         1 TEMP              0 ****  ****    0 ROOT
