@<TRIPOS>MOLECULE
K8S
   50    53     1     0     0
SMALL
No Charge or Current Charge


@<TRIPOS>ATOM
      1 C10         -5.5500     1.4320     0.5430 ca         1 K8S      -0.141500
      2 C17          3.6090     2.7360     0.2940 ca         1 K8S      -0.054000
      3 C20          5.5090     0.7870    -0.4680 ca         1 K8S      -0.122500
      4 C21          6.4770    -0.2380    -0.8810 cc         1 K8S       0.178500
      5 C22          7.8340    -0.0870    -0.9630 cd         1 K8S      -0.165000
      6 C24          7.2630    -2.1710    -1.5730 cc         1 K8S       0.129900
      7 C26          4.1270     0.5400    -0.6120 ca         1 K8S      -0.064000
      8 C28          0.8140    -1.2600     1.9080 c6         1 K8S       0.152000
      9 C02         -2.6050    -0.8600    -0.0220 c          1 K8S       0.613100
     10 C04         -4.9190     0.2660     0.0660 ca         1 K8S      -0.020000
     11 C05         -5.6940    -0.7010    -0.6140 ca         1 K8S      -0.141500
     12 C06         -7.0730    -0.4980    -0.8080 ca         1 K8S      -0.075500
     13 C07         -7.6890     0.6670    -0.3280 ca         1 K8S       0.094000
     14 C09         -6.9290     1.6330     0.3480 ca         1 K8S      -0.075500
     15 C11         -1.1570    -0.5900     0.4350 c6         1 K8S      -0.173700
     16 C12         -0.1820    -0.4180    -0.7550 c6         1 K8S       0.086000
     17 C16          3.1650     1.4970    -0.2130 ca         1 K8S      -0.149600
     18 C18          4.9810     2.9910     0.4420 ca         1 K8S      -0.116000
     19 C19          5.9270     2.0230     0.0700 ca         1 K8S      -0.075000
     20 C23          8.3340    -1.3300    -1.4070 cd         1 K8S      -0.186000
     21 C27          1.7480    -1.0620     0.6860 c6         1 K8S       0.045000
     22 C31         -0.6430    -1.5910     1.5100 c6         1 K8S      -0.120400
     23 F29          1.3190    -2.2900     2.7190 f          1 K8S      -0.115000
     24 F30          0.8290    -0.0940     2.6960 f          1 K8S      -0.115000
     25 N03         -3.5220     0.1340     0.3010 ns         1 K8S      -0.139000
     26 N13          1.1930    -0.0750    -0.2950 n          1 K8S      -0.390800
     27 O01         -2.8850    -1.8900    -0.6240 o          1 K8S      -0.578100
     28 O15          0.9320     2.1770    -0.6750 o          1 K8S      -0.577100
     29 O25          6.0990    -1.5060    -1.2530 os         1 K8S      -0.239000
     30 Cl08        -9.4130     0.9170    -0.5720 cl         1 K8S      -0.202000
     31 H1          -4.9720     2.1890     1.0690 ha         1 K8S       0.133500
     32 H2           2.8890     3.4980     0.5870 ha         1 K8S       0.131000
     33 H3           8.4140     0.8020    -0.7420 ha         1 K8S       0.142000
     34 H4           7.1890    -3.2010    -1.8950 h4         1 K8S       0.055100
     35 H5           3.7980    -0.3980    -1.0550 ha         1 K8S       0.133000
     36 H6          -5.2530    -1.6140    -1.0000 ha         1 K8S       0.133500
     37 H7          -7.6640    -1.2460    -1.3320 ha         1 K8S       0.131000
     38 H8          -7.4060     2.5370     0.7210 ha         1 K8S       0.131000
     39 H9          -1.1870     0.3910     0.9300 hc         1 K8S       0.079700
     40 H10         -0.1370    -1.3560    -1.3280 h1         1 K8S       0.079700
     41 H11         -0.5620     0.3520    -1.4430 h1         1 K8S       0.079700
     42 H12          5.3130     3.9440     0.8480 ha         1 K8S       0.122000
     43 H13          6.9820     2.2460     0.2030 ha         1 K8S       0.120000
     44 H14          9.3740    -1.5830    -1.5880 ha         1 K8S       0.144000
     45 H15          2.7290    -0.7450     1.0630 h1         1 K8S       0.088200
     46 H16          1.8910    -2.0280     0.1800 h1         1 K8S       0.088200
     47 H17         -0.6850    -2.6140     1.1100 hc         1 K8S       0.085700
     48 H18         -1.2910    -1.5750     2.3980 hc         1 K8S       0.085700
     49 H19         -3.1190     0.9160     0.8010 hn         1 K8S       0.158000
     50 C14          1.6810     1.2520    -0.3820 c          1 K8S       0.617700
@<TRIPOS>BOND
     1     1    10 ar  
     2     1    14 ar  
     3     1    31 1   
     4     2    17 ar  
     5     2    18 ar  
     6     2    32 1   
     7     3     4 1   
     8     3     7 ar  
     9     3    19 ar  
    10     4     5 2   
    11     4    29 1   
    12     5    20 1   
    13     5    33 1   
    14     6    20 2   
    15     6    29 1   
    16     6    34 1   
    17     7    17 ar  
    18     7    35 1   
    19     8    21 1   
    20     8    22 1   
    21     8    23 1   
    22     8    24 1   
    23     9    15 1   
    24     9    25 1   
    25     9    27 2   
    26    10    11 ar  
    27    10    25 1   
    28    11    12 ar  
    29    11    36 1   
    30    12    13 ar  
    31    12    37 1   
    32    13    14 ar  
    33    13    30 1   
    34    14    38 1   
    35    15    16 1   
    36    15    22 1   
    37    15    39 1   
    38    16    26 1   
    39    16    40 1   
    40    16    41 1   
    41    17    50 1   
    42    18    19 ar  
    43    18    42 1   
    44    19    43 1   
    45    20    44 1   
    46    21    26 1   
    47    21    45 1   
    48    21    46 1   
    49    22    47 1   
    50    22    48 1   
    51    25    49 1   
    52    26    50 1   
    53    28    50 2   
@<TRIPOS>SUBSTRUCTURE
     1 K8S         1 TEMP              0 ****  ****    0 ROOT
