@<TRIPOS>MOLECULE
K8T
   46    48     1     0     0
SMALL
No Charge or Current Charge


@<TRIPOS>ATOM
      1 N            5.3210     0.5010    -0.1860 n          1 K8T      -0.254000
      2 CA           4.0950     1.2340     0.2400 c3         1 K8T       0.006000
      3 C            2.7650     0.5340    -0.1020 c          1 K8T       0.592100
      4 O            2.6910    -0.5140    -0.7320 o          1 K8T      -0.585100
      5 OAY          5.1780    -0.9090     1.6440 o          1 K8T      -0.535000
      6 CAT          5.7660    -0.5800     0.6150 c          1 K8T       0.560200
      7 CAU          7.0020    -1.2690     0.1030 cc         1 K8T       0.019900
      8 OAZ          7.4500    -2.3080     0.8560 oh         1 K8T      -0.499100
      9 CAO          7.6500    -0.8820    -1.0520 cd         1 K8T      -0.223000
     10 CAR          7.1220     0.2260    -1.8010 cd         1 K8T      -0.245000
     11 CAS          5.9890     0.8750    -1.3550 cc         1 K8T      -0.062400
     12 NAV          1.6380     1.1880     0.3490 ns         1 K8T      -0.504900
     13 CAN          0.2700     0.7100     0.1370 c3         1 K8T       0.107000
     14 CAM         -0.7720     1.6440     0.7790 c3         1 K8T      -0.048100
     15 CAJ         -2.1940     1.1460     0.5570 ca         1 K8T      -0.082300
     16 CAK         -2.9240     1.5560    -0.5730 ca         1 K8T      -0.104000
     17 CAL         -4.2340     1.0910    -0.7790 ca         1 K8T      -0.098500
     18 CAI         -2.7880     0.2620     1.4760 ca         1 K8T      -0.104000
     19 CAH         -4.0980    -0.2030     1.2680 ca         1 K8T      -0.098500
     20 CAG         -4.8500     0.2010     0.1360 cp         1 K8T      -0.030000
     21 CAF         -6.2460    -0.2950    -0.0850 cp         1 K8T      -0.036000
     22 CAA         -6.6260    -1.6090     0.2920 ca         1 K8T      -0.098500
     23 CAB         -7.9360    -2.0750     0.0830 ca         1 K8T      -0.111500
     24 CAC         -8.8960    -1.2360    -0.5050 ca         1 K8T      -0.106000
     25 CAD         -8.5440     0.0680    -0.8860 ca         1 K8T      -0.111500
     26 CAE         -7.2340     0.5330    -0.6790 ca         1 K8T      -0.098500
     27 H1           4.1200     1.3940     1.3250 h1         1 K8T       0.074200
     28 H2           4.0740     2.2260    -0.2270 h1         1 K8T       0.074200
     29 H3           8.2530    -2.6670     0.4200 ho         1 K8T       0.461000
     30 H4           8.5420    -1.4000    -1.3970 ha         1 K8T       0.186000
     31 H5           7.6090     0.5530    -2.7190 ha         1 K8T       0.199000
     32 H6           5.5210     1.7150    -1.8610 h4         1 K8T       0.201000
     33 H7           1.7780     2.0520     0.8600 hn         1 K8T       0.313500
     34 H8           0.0810     0.6400    -0.9430 h1         1 K8T       0.058200
     35 H9           0.1730    -0.2950     0.5680 h1         1 K8T       0.058200
     36 H10         -0.5660     1.7290     1.8530 hc         1 K8T       0.050700
     37 H11         -0.6570     2.6520     0.3610 hc         1 K8T       0.050700
     38 H12         -2.4750     2.2340    -1.2960 ha         1 K8T       0.113500
     39 H13         -4.7700     1.4140    -1.6680 ha         1 K8T       0.116500
     40 H14         -2.2360    -0.0650     2.3540 ha         1 K8T       0.113500
     41 H15         -4.5380    -0.8750     2.0010 ha         1 K8T       0.116500
     42 H16         -5.8960    -2.2800     0.7370 ha         1 K8T       0.114000
     43 H17         -8.2060    -3.0870     0.3770 ha         1 K8T       0.113000
     44 H18         -9.9100    -1.5970    -0.6660 ha         1 K8T       0.113000
     45 H19         -9.2870     0.7210    -1.3400 ha         1 K8T       0.113000
     46 H20         -6.9860     1.5510    -0.9690 ha         1 K8T       0.114000
@<TRIPOS>BOND
     1     1     2 1   
     2     1     6 1   
     3     1    11 1   
     4     2     3 1   
     5     2    27 1   
     6     2    28 1   
     7     3     4 2   
     8     3    12 1   
     9     5     6 2   
    10     6     7 1   
    11     7     8 1   
    12     7     9 2   
    13     8    29 1   
    14     9    10 1   
    15     9    30 1   
    16    10    11 2   
    17    10    31 1   
    18    11    32 1   
    19    12    13 1   
    20    12    33 1   
    21    13    14 1   
    22    13    34 1   
    23    13    35 1   
    24    14    15 1   
    25    14    36 1   
    26    14    37 1   
    27    15    16 ar  
    28    15    18 ar  
    29    16    17 ar  
    30    16    38 1   
    31    17    20 ar  
    32    17    39 1   
    33    18    19 ar  
    34    18    40 1   
    35    19    20 ar  
    36    19    41 1   
    37    20    21 1   
    38    21    22 ar  
    39    21    26 ar  
    40    22    23 ar  
    41    22    42 1   
    42    23    24 ar  
    43    23    43 1   
    44    24    25 ar  
    45    24    44 1   
    46    25    26 ar  
    47    25    45 1   
    48    26    46 1   
@<TRIPOS>SUBSTRUCTURE
     1 K8T         1 TEMP              0 ****  ****    0 ROOT
