@<TRIPOS>MOLECULE
K8T
   46    48     1     0     0
SMALL
abcg2


@<TRIPOS>ATOM
      1 N            5.1640     0.6100    -0.3800 n          1 K8T      -0.254000
      2 CA           4.0160     1.4540    -0.1420 c3         1 K8T       0.006000
      3 C            2.7180     0.6780    -0.3260 c          1 K8T       0.592100
      4 O            2.6620    -0.3230    -1.0210 o          1 K8T      -0.585100
      5 OAY          4.7600    -0.4110     1.6050 o          1 K8T      -0.535000
      6 CAT          5.4480    -0.3210     0.5940 c          1 K8T       0.560200
      7 CAU          6.6100    -1.1500     0.3280 cc         1 K8T       0.019900
      8 OAZ          6.8900    -2.0090     1.3230 oh         1 K8T      -0.499100
      9 CAO          7.3030    -1.0370    -0.8350 cd         1 K8T      -0.223000
     10 CAR          6.9100    -0.0850    -1.8100 cd         1 K8T      -0.245000
     11 CAS          5.8490     0.7110    -1.5560 cc         1 K8T      -0.062400
     12 NAV          1.6600     1.2210     0.2840 ns         1 K8T      -0.504900
     13 CAN          0.3110     0.7280     0.0960 c3         1 K8T       0.107000
     14 CAM         -0.6720     1.5400     0.9340 c3         1 K8T      -0.048100
     15 CAJ         -2.0820     1.0800     0.6960 ca         1 K8T      -0.082300
     16 CAK         -2.8460     1.6280    -0.3310 ca         1 K8T      -0.104000
     17 CAL         -4.1330     1.1790    -0.5810 ca         1 K8T      -0.098500
     18 CAI         -2.6450     0.0650     1.4640 ca         1 K8T      -0.104000
     19 CAH         -3.9320    -0.3860     1.2170 ca         1 K8T      -0.098500
     20 CAG         -4.7010     0.1620     0.1900 cp         1 K8T      -0.030000
     21 CAF         -6.0730    -0.3170    -0.0720 cp         1 K8T      -0.036000
     22 CAA         -6.3940    -1.6690     0.0610 ca         1 K8T      -0.098500
     23 CAB         -7.6830    -2.1220    -0.1820 ca         1 K8T      -0.111500
     24 CAC         -8.6760    -1.2300    -0.5660 ca         1 K8T      -0.106000
     25 CAD         -8.3690     0.1170    -0.7040 ca         1 K8T      -0.111500
     26 CAE         -7.0810     0.5690    -0.4590 ca         1 K8T      -0.098500
     27 H1           4.0760     1.9040     0.8480 h1         1 K8T       0.074200
     28 H2           4.0300     2.2690    -0.8670 h1         1 K8T       0.074200
     29 H3           7.6830    -2.5140     1.1100 ho         1 K8T       0.461000
     30 H4           8.1610    -1.6730    -1.0230 ha         1 K8T       0.186000
     31 H5           7.4460     0.0060    -2.7410 ha         1 K8T       0.199000
     32 H6           5.4990     1.4620    -2.2490 h4         1 K8T       0.201000
     33 H7           1.7890     2.0540     0.8370 hn         1 K8T       0.313500
     34 H8           0.0320     0.7900    -0.9600 h1         1 K8T       0.058200
     35 H9           0.2550    -0.3250     0.3810 h1         1 K8T       0.058200
     36 H10         -0.4170     1.4430     1.9920 hc         1 K8T       0.050700
     37 H11         -0.5780     2.5990     0.6760 hc         1 K8T       0.050700
     38 H12         -2.4300     2.4160    -0.9480 ha         1 K8T       0.113500
     39 H13         -4.6960     1.6140    -1.3970 ha         1 K8T       0.116500
     40 H14         -2.0740    -0.3720     2.2750 ha         1 K8T       0.113500
     41 H15         -4.3510    -1.1610     1.8490 ha         1 K8T       0.116500
     42 H16         -5.6260    -2.3800     0.3400 ha         1 K8T       0.114000
     43 H17         -7.9080    -3.1750    -0.0780 ha         1 K8T       0.113000
     44 H18         -9.6820    -1.5820    -0.7580 ha         1 K8T       0.113000
     45 H19         -9.1380     0.8220    -0.9950 ha         1 K8T       0.113000
     46 H20         -6.8640     1.6260    -0.5510 ha         1 K8T       0.114000
@<TRIPOS>BOND
     1     1     2 1   
     2     1     6 1   
     3     1    11 1   
     4     2     3 1   
     5     2    27 1   
     6     2    28 1   
     7     3     4 2   
     8     3    12 1   
     9     5     6 2   
    10     6     7 1   
    11     7     8 1   
    12     7     9 2   
    13     8    29 1   
    14     9    10 1   
    15     9    30 1   
    16    10    11 2   
    17    10    31 1   
    18    11    32 1   
    19    12    13 1   
    20    12    33 1   
    21    13    14 1   
    22    13    34 1   
    23    13    35 1   
    24    14    15 1   
    25    14    36 1   
    26    14    37 1   
    27    15    16 ar  
    28    15    18 ar  
    29    16    17 ar  
    30    16    38 1   
    31    17    20 ar  
    32    17    39 1   
    33    18    19 ar  
    34    18    40 1   
    35    19    20 ar  
    36    19    41 1   
    37    20    21 1   
    38    21    22 ar  
    39    21    26 ar  
    40    22    23 ar  
    41    22    42 1   
    42    23    24 ar  
    43    23    43 1   
    44    24    25 ar  
    45    24    44 1   
    46    25    26 ar  
    47    25    45 1   
    48    26    46 1   
@<TRIPOS>SUBSTRUCTURE
     1 K8T         1 TEMP              0 ****  ****    0 ROOT
