@<TRIPOS>MOLECULE
K8U
  250   249     1     0     0
SMALL
No Charge or Current Charge


@<TRIPOS>ATOM
      1 C10         -3.4660    11.9980   -32.6740 c          1 K8U       0.597100
      2 O15         -1.9200    10.2190   -29.4390 os         1 K8U      -0.463100
      3 C14         -1.8750     9.1490   -28.5840 c          1 K8U       0.605100
      4 C12         -2.9050     9.2740   -27.4540 c3         1 K8U      -0.164400
      5 P01          1.5520    12.8550   -31.4780 p5         1 K8U       1.403800
      6 O02          2.8000    13.4040   -32.0800 o          1 K8U      -0.830000
      7 O03          1.8270    12.0080   -30.1370 os         1 K8U      -0.579400
      8 O04          0.5460    13.9290   -31.2350 o          1 K8U      -0.830000
      9 C05          2.8610    11.0030   -30.1350 c3         1 K8U       0.252600
     10 C06          3.8470    11.2050   -28.9390 c3         1 K8U       0.138300
     11 C07          4.7250    12.4920   -29.0490 c3         1 K8U       0.189600
     12 C08         -4.6610    11.3430   -33.3720 c3         1 K8U      -0.133400
     13 O09         -3.1310    13.1620   -32.8450 o          1 K8U      -0.503000
     14 O11         -2.7170    11.0600   -32.0140 os         1 K8U      -0.464100
     15 O13         -1.0390     8.2580   -28.6370 o          1 K8U      -0.468000
     16 C16         -1.4040    11.3950   -31.5000 c3         1 K8U       0.129300
     17 C17         -1.0120    10.2240   -30.5640 c3         1 K8U       0.179600
     18 O18          3.1300    11.2070   -27.6810 oh         1 K8U      -0.650000
     19 O19          5.4470    12.5820   -30.2950 os         1 K8U      -0.578400
     20 P20          6.6410    11.5920   -30.7470 p5         1 K8U       1.375800
     21 O21          7.0900    11.8800   -32.1410 o          1 K8U      -0.823000
     22 C22         -0.4520    11.5510   -32.7310 c3         1 K8U       0.207600
     23 O23          6.2920    10.1520   -30.5790 o          1 K8U      -0.823000
     24 O24          0.9400    11.6640   -32.3810 os         1 K8U      -0.585400
     25 O25          7.7570    12.0630   -29.6870 os         1 K8U      -0.583400
     26 C26          8.3970    13.3370   -29.8690 c3         1 K8U       0.209600
     27 C27          8.8050    13.9110   -28.4800 c3         1 K8U       0.174300
     28 C28          9.6690    12.9050   -27.6700 c3         1 K8U       0.152600
     29 O29         10.1410    13.5190   -26.4450 os         1 K8U      -0.445100
     30 C30         11.1110    14.4860   -26.5110 c          1 K8U       0.598100
     31 C31         11.5180    14.9590   -25.1150 c3         1 K8U      -0.146400
     32 O32         11.7060    14.8040   -27.5310 o          1 K8U      -0.484000
     33 O33          7.6120    14.1960   -27.7000 os         1 K8U      -0.458100
     34 C34          6.7680    15.2520   -27.9780 c          1 K8U       0.598100
     35 C35          7.4080    16.4870   -28.6610 c3         1 K8U      -0.175400
     36 O36          5.6800    15.3280   -27.4310 o          1 K8U      -0.388000
     37 C37         -4.2320    10.5800   -34.6520 c3         1 K8U      -0.076400
     38 C38         -3.7660    11.4860   -35.8160 c3         1 K8U      -0.084400
     39 C39         -3.1920    10.7350   -37.0490 c3         1 K8U      -0.088400
     40 C40         -4.1460     9.6980   -37.6980 c3         1 K8U      -0.065400
     41 C41         -3.9560     8.2470   -37.1800 c3         1 K8U      -0.077400
     42 C42         -5.0840     7.2790   -37.6010 c3         1 K8U      -0.044200
     43 C43         -6.4240     7.6470   -36.9940 c2         1 K8U      -0.217200
     44 C44         -6.7110     7.5910   -35.6840 c2         1 K8U      -0.235200
     45 C45         -8.0190     7.9900   -35.0420 c3         1 K8U      -0.011000
     46 C46         -7.8010     9.1220   -34.0550 c2         1 K8U      -0.208200
     47 C47         -7.8230     9.0470   -32.7120 c2         1 K8U      -0.233200
     48 C48         -8.0170     7.7980   -31.8750 c3         1 K8U      -0.043200
     49 C49         -9.5030     7.5430   -31.5420 c3         1 K8U      -0.076400
     50 C50         -9.7580     6.3050   -30.6440 c3         1 K8U      -0.076400
     51 C51         -9.3380     4.9380   -31.2420 c3         1 K8U      -0.082400
     52 C52        -10.0610     4.5650   -32.5540 c3         1 K8U      -0.090100
     53 C53         -4.0560     8.2350   -27.5610 c3         1 K8U      -0.075400
     54 C54         -5.1350     8.5400   -28.6280 c3         1 K8U      -0.047200
     55 C55         -4.6000     8.5670   -30.0430 c2         1 K8U      -0.218200
     56 C56         -4.5670     7.5260   -30.8880 c2         1 K8U      -0.220200
     57 C57         -4.0430     7.5860   -32.3050 c3         1 K8U      -0.008000
     58 C58         -3.2170     6.3650   -32.6450 c2         1 K8U      -0.218200
     59 C59         -3.2710     5.6890   -33.8050 c2         1 K8U      -0.223200
     60 C60         -2.4190     4.4880   -34.1590 c3         1 K8U      -0.004000
     61 C61         -3.2720     3.3100   -34.6000 c2         1 K8U      -0.209200
     62 C62         -2.9350     2.0080   -34.5580 c2         1 K8U      -0.233200
     63 C63         -1.6200     1.4080   -34.0970 c3         1 K8U      -0.008000
     64 C64         -1.8250     0.5620   -32.8590 c2         1 K8U      -0.213200
     65 C65         -1.3650    -0.6870   -32.6820 c2         1 K8U      -0.226200
     66 C66         -1.5830    -1.5290   -31.4400 c3         1 K8U      -0.038200
     67 C67         -0.3180    -1.6610   -30.5590 c3         1 K8U      -0.075400
     68 C68          0.9050    -2.3310   -31.2360 c3         1 K8U      -0.075400
     69 C69          0.6780    -3.8010   -31.6590 c3         1 K8U      -0.088400
     70 C70          1.9430    -4.4640   -32.2380 c3         1 K8U      -0.093100
     71 C71         12.5950    14.0260   -24.5150 c3         1 K8U      -0.070400
     72 C72         13.0060    14.4080   -23.0750 c3         1 K8U      -0.074400
     73 C73         13.9980    13.4150   -22.4200 c3         1 K8U      -0.067400
     74 C74         15.3660    13.2600   -23.1350 c3         1 K8U      -0.073400
     75 C75         16.2000    14.5610   -23.2820 c3         1 K8U      -0.079400
     76 C76         16.5250    15.3040   -21.9610 c3         1 K8U      -0.073400
     77 C77         17.3160    14.4570   -20.9370 c3         1 K8U      -0.089400
     78 C78         17.6960    15.2420   -19.6600 c3         1 K8U      -0.071400
     79 C79         18.5240    14.4200   -18.6440 c3         1 K8U      -0.065400
     80 C80         17.7250    13.3010   -17.9250 c3         1 K8U      -0.101400
     81 C81         18.5840    12.3870   -17.0140 c3         1 K8U      -0.064400
     82 C82         19.1100    11.0900   -17.6830 c3         1 K8U      -0.074400
     83 C83         20.0200    11.2990   -18.9150 c3         1 K8U      -0.094400
     84 C84         20.6240     9.9790   -19.4510 c3         1 K8U      -0.063400
     85 C85         21.4390    10.1300   -20.7590 c3         1 K8U      -0.078400
     86 C86         22.7310    10.9740   -20.6200 c3         1 K8U      -0.069400
     87 C87         23.5430    11.1160   -21.9300 c3         1 K8U      -0.074400
     88 C88         24.1640     9.8010   -22.4460 c3         1 K8U      -0.089100
     89 C89          8.4090    17.2480   -27.7440 c3         1 K8U      -0.065400
     90 C90          7.8150    18.4070   -26.9050 c3         1 K8U      -0.077400
     91 C91          6.7850    17.9840   -25.8310 c3         1 K8U      -0.079400
     92 C92          6.4300    19.1010   -24.8200 c3         1 K8U      -0.075400
     93 C93          5.7190    20.3250   -25.4490 c3         1 K8U      -0.070400
     94 C94          5.2680    21.3960   -24.4270 c3         1 K8U      -0.077400
     95 C95          6.4340    22.0890   -23.6810 c3         1 K8U      -0.066400
     96 C96          6.0800    23.3840   -22.9020 c3         1 K8U      -0.087400
     97 C97          5.1850    23.2240   -21.6430 c3         1 K8U      -0.064400
     98 C98          3.6480    23.0950   -21.8350 c3         1 K8U      -0.079400
     99 C99          2.9250    24.3260   -22.4440 c3         1 K8U      -0.079400
    100 CA0          2.7130    24.2690   -23.9760 c3         1 K8U      -0.075400
    101 CA1          1.9040    25.4680   -24.5180 c3         1 K8U      -0.087400
    102 CA2          1.6970    25.4140   -26.0440 c3         1 K8U      -0.090100
    103 H1          -2.3830     9.1040   -26.5060 hc         1 K8U       0.081200
    104 H2          -3.3420    10.2800   -27.4590 hc         1 K8U       0.081200
    105 H4           2.4050    10.0090   -30.0410 h1         1 K8U       0.030200
    106 H5           3.4300    11.0020   -31.0750 h1         1 K8U       0.030200
    107 H6           4.5180    10.3400   -28.9270 h1         1 K8U       0.016700
    108 H7           4.0730    13.3690   -28.9450 h1         1 K8U       0.033700
    109 H8           5.4300    12.5080   -28.2060 h1         1 K8U       0.033700
    110 H9          -5.4150    12.0970   -33.6240 hc         1 K8U       0.061200
    111 H10         -5.0800    10.5860   -32.6990 hc         1 K8U       0.061200
    112 H11         -1.4320    12.3250   -30.9190 h1         1 K8U       0.098700
    113 H12         -1.0800     9.2830   -31.1280 h1         1 K8U       0.080200
    114 H13          0.0210    10.3340   -30.2200 h1         1 K8U       0.080200
    115 H14          3.7960    11.1260   -26.9640 ho         1 K8U       0.412000
    116 H15         -0.5880    10.6790   -33.3850 h1         1 K8U       0.034700
    117 H16         -0.7520    12.4320   -33.3120 h1         1 K8U       0.034700
    118 H18          9.3000    13.2210   -30.4830 h1         1 K8U       0.042700
    119 H19          7.7380    14.0480   -30.3830 h1         1 K8U       0.042700
    120 H20          9.4030    14.8130   -28.6420 h1         1 K8U       0.000700
    121 H21          9.0550    12.0260   -27.4350 h1         1 K8U       0.087200
    122 H22         10.5110    12.5610   -28.2850 h1         1 K8U       0.087200
    123 H23         11.9160    15.9790   -25.1750 hc         1 K8U       0.066700
    124 H24         10.6420    14.9200   -24.4570 hc         1 K8U       0.066700
    125 H25          7.9740    16.1740   -29.5430 hc         1 K8U       0.053200
    126 H26          6.6170    17.1760   -28.9780 hc         1 K8U       0.053200
    127 H27         -5.0820     9.9780   -34.9900 hc         1 K8U       0.043200
    128 H28         -3.4270     9.8790   -34.4000 hc         1 K8U       0.043200
    129 H29         -2.9920    12.1730   -35.4530 hc         1 K8U       0.047700
    130 H30         -4.6080    12.1110   -36.1390 hc         1 K8U       0.047700
    131 H31         -2.2470    10.2480   -36.7760 hc         1 K8U       0.052700
    132 H32         -2.9360    11.4870   -37.8060 hc         1 K8U       0.052700
    133 H33         -3.9760     9.6940   -38.7820 hc         1 K8U       0.040700
    134 H34         -5.1830    10.0230   -37.5530 hc         1 K8U       0.040700
    135 H35         -3.8750     8.2380   -36.0880 hc         1 K8U       0.039200
    136 H36         -3.0010     7.8630   -37.5590 hc         1 K8U       0.039200
    137 H37         -5.1550     7.2570   -38.6960 hc         1 K8U       0.041200
    138 H38         -4.8070     6.2630   -37.2900 hc         1 K8U       0.041200
    139 H39         -7.1660     7.9980   -37.7130 ha         1 K8U       0.165000
    140 H40         -5.9630     7.2430   -34.9750 ha         1 K8U       0.170000
    141 H41         -8.7420     8.3050   -35.8060 hc         1 K8U       0.044700
    142 H42         -8.4650     7.1180   -34.5510 hc         1 K8U       0.044700
    143 H43         -7.6360    10.0880   -34.5360 ha         1 K8U       0.189000
    144 H44         -7.6620     9.9500   -32.1190 ha         1 K8U       0.174000
    145 H45         -7.6030     6.9270   -32.3970 hc         1 K8U       0.044200
    146 H46         -7.4520     7.8880   -30.9390 hc         1 K8U       0.044200
    147 H47         -9.9010     8.4270   -31.0280 hc         1 K8U       0.039700
    148 H48        -10.0740     7.4480   -32.4730 hc         1 K8U       0.039700
    149 H49        -10.8270     6.2670   -30.4000 hc         1 K8U       0.042200
    150 H50         -9.2320     6.4470   -29.6910 hc         1 K8U       0.042200
    151 H51         -8.2540     4.9170   -31.4070 hc         1 K8U       0.034700
    152 H52         -9.5490     4.1570   -30.5000 hc         1 K8U       0.034700
    153 H53         -9.7840     3.5500   -32.8640 hc         1 K8U       0.031033
    154 H54        -11.1490     4.5960   -32.4220 hc         1 K8U       0.031033
    155 H55         -9.7880     5.2500   -33.3650 hc         1 K8U       0.031033
    156 H56         -4.5570     8.1770   -26.5870 hc         1 K8U       0.046700
    157 H57         -3.6340     7.2380   -27.7460 hc         1 K8U       0.046700
    158 H58         -5.6220     9.4950   -28.3930 hc         1 K8U       0.054200
    159 H59         -5.9200     7.7760   -28.5480 hc         1 K8U       0.054200
    160 H60         -4.2480     9.5470   -30.3680 ha         1 K8U       0.155000
    161 H61         -4.9390     6.5470   -30.5810 ha         1 K8U       0.190000
    162 H62         -3.4280     8.4830   -32.4360 hc         1 K8U       0.050200
    163 H63         -4.8830     7.6870   -33.0020 hc         1 K8U       0.050200
    164 H64         -2.5270     6.0570   -31.8570 ha         1 K8U       0.162000
    165 H65         -3.9480     6.0080   -34.5980 ha         1 K8U       0.178000
    166 H66         -1.7360     4.7620   -34.9730 hc         1 K8U       0.056200
    167 H67         -1.7860     4.2110   -33.3080 hc         1 K8U       0.056200
    168 H68         -4.2580     3.5920   -34.9740 ha         1 K8U       0.169000
    169 H69         -3.6520     1.2600   -34.9040 ha         1 K8U       0.161000
    170 H70         -1.1900     0.8030   -34.9050 hc         1 K8U       0.053200
    171 H71         -0.8790     2.1880   -33.8850 hc         1 K8U       0.053200
    172 H72         -2.3970     1.0570   -32.0710 ha         1 K8U       0.168000
    173 H73         -0.7960    -1.1840   -33.4700 ha         1 K8U       0.172000
    174 H74         -2.3760    -1.0840   -30.8260 hc         1 K8U       0.039700
    175 H75         -1.9480    -2.5260   -31.7180 hc         1 K8U       0.039700
    176 H76         -0.0220    -0.6590   -30.2230 hc         1 K8U       0.039700
    177 H77         -0.5750    -2.2250   -29.6540 hc         1 K8U       0.039700
    178 H78          1.2090    -1.7430   -32.1100 hc         1 K8U       0.044200
    179 H79          1.7470    -2.2950   -30.5330 hc         1 K8U       0.044200
    180 H80          0.3370    -4.3810   -30.7930 hc         1 K8U       0.031700
    181 H81         -0.1160    -3.8510   -32.4130 hc         1 K8U       0.031700
    182 H82          1.7340    -5.5010   -32.5280 hc         1 K8U       0.034033
    183 H83          2.2920    -3.9240   -33.1270 hc         1 K8U       0.034033
    184 H84          2.7520    -4.4720   -31.4970 hc         1 K8U       0.034033
    185 H85         12.2170    12.9950   -24.5150 hc         1 K8U       0.046200
    186 H86         13.4770    14.0440   -25.1660 hc         1 K8U       0.046200
    187 H87         13.4340    15.4180   -23.0710 hc         1 K8U       0.043200
    188 H88         12.1050    14.4530   -22.4510 hc         1 K8U       0.043200
    189 H89         14.1670    13.7210   -21.3800 hc         1 K8U       0.031700
    190 H90         13.5210    12.4290   -22.3670 hc         1 K8U       0.031700
    191 H91         15.2050    12.8340   -24.1320 hc         1 K8U       0.035700
    192 H92         15.9590    12.5130   -22.5940 hc         1 K8U       0.035700
    193 H93         15.6750    15.2500   -23.9530 hc         1 K8U       0.046700
    194 H94         17.1430    14.3120   -23.7840 hc         1 K8U       0.046700
    195 H95         17.1090    16.2000   -22.2060 hc         1 K8U       0.035200
    196 H96         15.5960    15.6590   -21.5000 hc         1 K8U       0.035200
    197 H97         16.7140    13.5870   -20.6570 hc         1 K8U       0.038200
    198 H98         18.2290    14.0770   -21.4120 hc         1 K8U       0.038200
    199 H99         18.2810    16.1230   -19.9510 hc         1 K8U       0.035700
    200 H100        16.7880    15.6160   -19.1720 hc         1 K8U       0.035700
    201 H101        19.3970    14.0040   -19.1570 hc         1 K8U       0.033200
    202 H102        18.9180    15.1060   -17.8830 hc         1 K8U       0.033200
    203 H103        16.9540    13.7810   -17.3090 hc         1 K8U       0.047200
    204 H104        17.1910    12.6770   -18.6500 hc         1 K8U       0.047200
    205 H105        17.9700    12.0880   -16.1550 hc         1 K8U       0.034700
    206 H106        19.4250    12.9570   -16.6010 hc         1 K8U       0.034700
    207 H107        18.2530    10.4690   -17.9740 hc         1 K8U       0.034700
    208 H108        19.6630    10.5180   -16.9280 hc         1 K8U       0.034700
    209 H109        20.8270    11.9910   -18.6460 hc         1 K8U       0.044700
    210 H110        19.4390    11.7670   -19.7190 hc         1 K8U       0.044700
    211 H111        19.8080     9.2700   -19.6360 hc         1 K8U       0.034700
    212 H112        21.2610     9.5300   -18.6790 hc         1 K8U       0.034700
    213 H113        20.7980    10.5710   -21.5330 hc         1 K8U       0.032700
    214 H114        21.7020     9.1240   -21.1060 hc         1 K8U       0.032700
    215 H115        23.3710    10.5370   -19.8440 hc         1 K8U       0.037200
    216 H116        22.4670    11.9820   -20.2790 hc         1 K8U       0.037200
    217 H117        24.3520    11.8380   -21.7610 hc         1 K8U       0.041200
    218 H118        22.9030    11.5440   -22.7120 hc         1 K8U       0.041200
    219 H119        24.7850     9.9970   -23.3280 hc         1 K8U       0.031367
    220 H120        24.7990     9.3430   -21.6780 hc         1 K8U       0.031367
    221 H121        23.3890     9.0810   -22.7330 hc         1 K8U       0.031367
    222 H122         8.9240    16.5460   -27.0770 hc         1 K8U       0.048200
    223 H123         9.1900    17.6790   -28.3830 hc         1 K8U       0.048200
    224 H124         7.3590    19.1380   -27.5840 hc         1 K8U       0.029700
    225 H125         8.6470    18.9230   -26.4080 hc         1 K8U       0.029700
    226 H126         7.1790    17.1250   -25.2740 hc         1 K8U       0.056700
    227 H127         5.8630    17.6520   -26.3200 hc         1 K8U       0.056700
    228 H128         5.7800    18.6750   -24.0460 hc         1 K8U       0.038200
    229 H129         7.3480    19.4250   -24.3140 hc         1 K8U       0.038200
    230 H130         6.3780    20.7980   -26.1860 hc         1 K8U       0.035700
    231 H131         4.8350    19.9760   -25.9970 hc         1 K8U       0.035700
    232 H132         4.6840    22.1530   -24.9620 hc         1 K8U       0.031200
    233 H133         4.5990    20.9190   -23.7040 hc         1 K8U       0.031200
    234 H134         6.8970    21.3760   -22.9880 hc         1 K8U       0.043200
    235 H135         7.2070    22.3470   -24.4160 hc         1 K8U       0.043200
    236 H136         7.0310    23.8120   -22.5620 hc         1 K8U       0.029200
    237 H137         5.6610    24.1320   -23.5820 hc         1 K8U       0.029200
    238 H138         5.5400    22.3570   -21.0740 hc         1 K8U       0.037700
    239 H139         5.3630    24.0930   -20.9960 hc         1 K8U       0.037700
    240 H140         3.3950    22.1940   -22.4010 hc         1 K8U       0.037200
    241 H141         3.2240    22.9320   -20.8360 hc         1 K8U       0.037200
    242 H142         3.4650    25.2430   -22.1760 hc         1 K8U       0.039200
    243 H143         1.9380    24.4040   -21.9720 hc         1 K8U       0.039200
    244 H144         2.1900    23.3400   -24.2330 hc         1 K8U       0.044700
    245 H145         3.6780    24.2430   -24.4900 hc         1 K8U       0.044700
    246 H146         2.4200    26.4010   -24.2610 hc         1 K8U       0.028700
    247 H147         0.9230    25.4980   -24.0260 hc         1 K8U       0.028700
    248 H148         1.1140    26.2790   -26.3830 hc         1 K8U       0.035700
    249 H149         2.6600    25.4230   -26.5670 hc         1 K8U       0.035700
    250 H150         1.1560    24.5040   -26.3310 hc         1 K8U       0.035700
@<TRIPOS>BOND
     1     1    12 1   
     2     1    13 2   
     3     1    14 1   
     4     2     3 1   
     5     2    17 1   
     6     3     4 1   
     7     3    15 2   
     8     4    53 1   
     9     4   103 1   
    10     4   104 1   
    11     5     6 1   
    12     5     7 1   
    13     5     8 1   
    14     5    24 1   
    15     7     9 1   
    16     9    10 1   
    17     9   105 1   
    18     9   106 1   
    19    10    11 1   
    20    10    18 1   
    21    10   107 1   
    22    11    19 1   
    23    11   108 1   
    24    11   109 1   
    25    12    37 1   
    26    12   110 1   
    27    12   111 1   
    28    14    16 1   
    29    16    17 1   
    30    16    22 1   
    31    16   112 1   
    32    17   113 1   
    33    17   114 1   
    34    18   115 1   
    35    19    20 1   
    36    20    21 1   
    37    20    23 1   
    38    20    25 1   
    39    22    24 1   
    40    22   116 1   
    41    22   117 1   
    42    25    26 1   
    43    26    27 1   
    44    26   118 1   
    45    26   119 1   
    46    27    28 1   
    47    27    33 1   
    48    27   120 1   
    49    28    29 1   
    50    28   121 1   
    51    28   122 1   
    52    29    30 1   
    53    30    31 1   
    54    30    32 2   
    55    31    71 1   
    56    31   123 1   
    57    31   124 1   
    58    33    34 1   
    59    34    35 1   
    60    34    36 2   
    61    35    89 1   
    62    35   125 1   
    63    35   126 1   
    64    37    38 1   
    65    37   127 1   
    66    37   128 1   
    67    38    39 1   
    68    38   129 1   
    69    38   130 1   
    70    39    40 1   
    71    39   131 1   
    72    39   132 1   
    73    40    41 1   
    74    40   133 1   
    75    40   134 1   
    76    41    42 1   
    77    41   135 1   
    78    41   136 1   
    79    42    43 1   
    80    42   137 1   
    81    42   138 1   
    82    43    44 2   
    83    43   139 1   
    84    44    45 1   
    85    44   140 1   
    86    45    46 1   
    87    45   141 1   
    88    45   142 1   
    89    46    47 2   
    90    46   143 1   
    91    47    48 1   
    92    47   144 1   
    93    48    49 1   
    94    48   145 1   
    95    48   146 1   
    96    49    50 1   
    97    49   147 1   
    98    49   148 1   
    99    50    51 1   
   100    50   149 1   
   101    50   150 1   
   102    51    52 1   
   103    51   151 1   
   104    51   152 1   
   105    52   153 1   
   106    52   154 1   
   107    52   155 1   
   108    53    54 1   
   109    53   156 1   
   110    53   157 1   
   111    54    55 1   
   112    54   158 1   
   113    54   159 1   
   114    55    56 2   
   115    55   160 1   
   116    56    57 1   
   117    56   161 1   
   118    57    58 1   
   119    57   162 1   
   120    57   163 1   
   121    58    59 2   
   122    58   164 1   
   123    59    60 1   
   124    59   165 1   
   125    60    61 1   
   126    60   166 1   
   127    60   167 1   
   128    61    62 2   
   129    61   168 1   
   130    62    63 1   
   131    62   169 1   
   132    63    64 1   
   133    63   170 1   
   134    63   171 1   
   135    64    65 2   
   136    64   172 1   
   137    65    66 1   
   138    65   173 1   
   139    66    67 1   
   140    66   174 1   
   141    66   175 1   
   142    67    68 1   
   143    67   176 1   
   144    67   177 1   
   145    68    69 1   
   146    68   178 1   
   147    68   179 1   
   148    69    70 1   
   149    69   180 1   
   150    69   181 1   
   151    70   182 1   
   152    70   183 1   
   153    70   184 1   
   154    71    72 1   
   155    71   185 1   
   156    71   186 1   
   157    72    73 1   
   158    72   187 1   
   159    72   188 1   
   160    73    74 1   
   161    73   189 1   
   162    73   190 1   
   163    74    75 1   
   164    74   191 1   
   165    74   192 1   
   166    75    76 1   
   167    75   193 1   
   168    75   194 1   
   169    76    77 1   
   170    76   195 1   
   171    76   196 1   
   172    77    78 1   
   173    77   197 1   
   174    77   198 1   
   175    78    79 1   
   176    78   199 1   
   177    78   200 1   
   178    79    80 1   
   179    79   201 1   
   180    79   202 1   
   181    80    81 1   
   182    80   203 1   
   183    80   204 1   
   184    81    82 1   
   185    81   205 1   
   186    81   206 1   
   187    82    83 1   
   188    82   207 1   
   189    82   208 1   
   190    83    84 1   
   191    83   209 1   
   192    83   210 1   
   193    84    85 1   
   194    84   211 1   
   195    84   212 1   
   196    85    86 1   
   197    85   213 1   
   198    85   214 1   
   199    86    87 1   
   200    86   215 1   
   201    86   216 1   
   202    87    88 1   
   203    87   217 1   
   204    87   218 1   
   205    88   219 1   
   206    88   220 1   
   207    88   221 1   
   208    89    90 1   
   209    89   222 1   
   210    89   223 1   
   211    90    91 1   
   212    90   224 1   
   213    90   225 1   
   214    91    92 1   
   215    91   226 1   
   216    91   227 1   
   217    92    93 1   
   218    92   228 1   
   219    92   229 1   
   220    93    94 1   
   221    93   230 1   
   222    93   231 1   
   223    94    95 1   
   224    94   232 1   
   225    94   233 1   
   226    95    96 1   
   227    95   234 1   
   228    95   235 1   
   229    96    97 1   
   230    96   236 1   
   231    96   237 1   
   232    97    98 1   
   233    97   238 1   
   234    97   239 1   
   235    98    99 1   
   236    98   240 1   
   237    98   241 1   
   238    99   100 1   
   239    99   242 1   
   240    99   243 1   
   241   100   101 1   
   242   100   244 1   
   243   100   245 1   
   244   101   102 1   
   245   101   246 1   
   246   101   247 1   
   247   102   248 1   
   248   102   249 1   
   249   102   250 1   
@<TRIPOS>SUBSTRUCTURE
     1 K8U         1 TEMP              0 ****  ****    0 ROOT
