@<TRIPOS>MOLECULE
K8U
  250   249     1     0     0
SMALL
abcg2


@<TRIPOS>ATOM
      1 C10         -3.1660     9.5840   -32.3640 c          1 K8U       0.597100
      2 O15          0.8540     8.3970   -30.9670 os         1 K8U      -0.463100
      3 C14          0.3310     7.2170   -30.5420 c          1 K8U       0.605100
      4 C12         -0.5630     7.3090   -29.3260 c3         1 K8U      -0.164400
      5 P01          1.7400    12.6660   -32.4050 p5         1 K8U       1.403800
      6 O02          2.1580    11.8760   -33.6120 o          1 K8U      -0.830000
      7 O03          2.7630    12.4190   -31.1720 os         1 K8U      -0.579400
      8 O04          1.5180    14.1430   -32.4970 o          1 K8U      -0.830000
      9 C05          3.4280    11.2020   -30.9360 c3         1 K8U       0.252600
     10 C06          3.3970    10.8400   -29.4390 c3         1 K8U       0.138300
     11 C07          4.2690    11.7230   -28.5640 c3         1 K8U       0.189600
     12 C08         -4.2280     9.1220   -33.3470 c3         1 K8U      -0.133400
     13 O09         -3.4440    10.0880   -31.3020 o          1 K8U      -0.503000
     14 O11         -1.9320     9.3810   -32.7980 os         1 K8U      -0.464100
     15 O13          0.6490     6.1900   -31.0760 o          1 K8U      -0.468000
     16 C16         -0.8200     9.8900   -32.0200 c3         1 K8U       0.129300
     17 C17          0.3410     8.8800   -32.2370 c3         1 K8U       0.179600
     18 O18          2.0560    10.8980   -29.0080 oh         1 K8U      -0.650000
     19 O19          5.5870    11.8370   -29.0950 os         1 K8U      -0.578400
     20 P20          6.8710    11.3370   -28.1810 p5         1 K8U       1.375800
     21 O21          7.9230    10.8220   -29.1220 o          1 K8U      -0.823000
     22 C22         -0.4950    11.2260   -32.6730 c3         1 K8U       0.207600
     23 O23          6.4100    10.4150   -27.0960 o          1 K8U      -0.823000
     24 O24          0.3170    12.0050   -31.8000 os         1 K8U      -0.585400
     25 O25          7.3040    12.8180   -27.5550 os         1 K8U      -0.583400
     26 C26          8.5720    13.3700   -27.8910 c3         1 K8U       0.209600
     27 C27          9.0470    14.1960   -26.6890 c3         1 K8U       0.174300
     28 C28          9.7020    13.3360   -25.6300 c3         1 K8U       0.152600
     29 O29         10.2960    14.0740   -24.5910 os         1 K8U      -0.445100
     30 C30         11.6030    14.3630   -24.6590 c          1 K8U       0.598100
     31 C31         11.9960    15.6930   -24.0890 c3         1 K8U      -0.146400
     32 O32         12.4110    13.6090   -25.1420 o          1 K8U      -0.484000
     33 O33          7.9820    14.9570   -26.1280 os         1 K8U      -0.458100
     34 C34          7.7070    16.1580   -26.6790 c          1 K8U       0.598100
     35 C35          8.4720    17.3260   -26.0770 c3         1 K8U      -0.175400
     36 O36          6.8460    16.2860   -27.5050 o          1 K8U      -0.388000
     37 C37         -3.8480     9.3010   -34.8030 c3         1 K8U      -0.076400
     38 C38         -3.7180    10.8030   -35.2130 c3         1 K8U      -0.084400
     39 C39         -2.7980    11.0180   -36.4720 c3         1 K8U      -0.088400
     40 C40         -3.4940    11.8100   -37.5570 c3         1 K8U      -0.065400
     41 C41         -4.4780    10.9610   -38.3760 c3         1 K8U      -0.077400
     42 C42         -5.8960    11.5680   -38.4650 c3         1 K8U      -0.044200
     43 C43         -6.9240    10.8940   -37.5590 c2         1 K8U      -0.217200
     44 C44         -7.0580     9.5860   -37.3620 c2         1 K8U      -0.235200
     45 C45         -8.0020     8.9760   -36.3440 c3         1 K8U      -0.011000
     46 C46         -7.9160     9.6060   -34.9730 c2         1 K8U      -0.208200
     47 C47         -8.6800     9.2550   -33.9390 c2         1 K8U      -0.233200
     48 C48         -9.7820     8.2410   -33.9530 c3         1 K8U      -0.043200
     49 C49        -11.0280     8.6890   -33.1140 c3         1 K8U      -0.076400
     50 C50        -11.4510     7.7040   -32.0050 c3         1 K8U      -0.076400
     51 C51        -12.8750     7.0950   -32.1880 c3         1 K8U      -0.082400
     52 C52        -13.8380     7.5090   -31.0710 c3         1 K8U      -0.090100
     53 C53         -1.6860     6.2640   -29.3560 c3         1 K8U      -0.075400
     54 C54         -3.0670     6.8380   -29.7450 c3         1 K8U      -0.047200
     55 C55         -3.6450     6.2950   -31.0300 c2         1 K8U      -0.218200
     56 C56         -2.9340     5.9700   -32.1050 c2         1 K8U      -0.220200
     57 C57         -3.5270     5.4850   -33.4100 c3         1 K8U      -0.008000
     58 C58         -3.4460     3.9560   -33.4730 c2         1 K8U      -0.218200
     59 C59         -2.3800     3.3300   -33.9630 c2         1 K8U      -0.223200
     60 C60         -2.1750     1.8680   -34.2090 c3         1 K8U      -0.004000
     61 C61         -3.3660     0.9930   -33.8520 c2         1 K8U      -0.209200
     62 C62         -3.3130    -0.2620   -33.4120 c2         1 K8U      -0.233200
     63 C63         -2.0710    -1.0970   -33.2410 c3         1 K8U      -0.008000
     64 C64         -2.1100    -1.9420   -31.9800 c2         1 K8U      -0.213200
     65 C65         -1.0400    -2.5510   -31.4770 c2         1 K8U      -0.226200
     66 C66         -1.1040    -3.4290   -30.2540 c3         1 K8U      -0.038200
     67 C67          0.1490    -3.3450   -29.3510 c3         1 K8U      -0.075400
     68 C68          1.5120    -3.5510   -30.0390 c3         1 K8U      -0.075400
     69 C69          2.1280    -4.9080   -29.7070 c3         1 K8U      -0.088400
     70 C70          3.4840    -5.1580   -30.4150 c3         1 K8U      -0.093100
     71 C71         12.4190    15.6110   -22.5970 c3         1 K8U      -0.070400
     72 C72         13.9370    15.7430   -22.4220 c3         1 K8U      -0.074400
     73 C73         14.4020    15.5850   -20.9720 c3         1 K8U      -0.067400
     74 C74         15.1540    14.2870   -20.6130 c3         1 K8U      -0.073400
     75 C75         16.1850    13.8320   -21.6690 c3         1 K8U      -0.079400
     76 C76         17.5790    14.3780   -21.4550 c3         1 K8U      -0.073400
     77 C77         18.3370    13.7440   -20.2730 c3         1 K8U      -0.089400
     78 C78         18.9080    14.6560   -19.1750 c3         1 K8U      -0.071400
     79 C79         20.0950    14.0120   -18.3300 c3         1 K8U      -0.065400
     80 C80         20.3060    12.5450   -18.6670 c3         1 K8U      -0.101400
     81 C81         21.6090    11.8200   -18.2840 c3         1 K8U      -0.064400
     82 C82         22.0210    10.7670   -19.3690 c3         1 K8U      -0.074400
     83 C83         21.5230    11.1100   -20.7960 c3         1 K8U      -0.094400
     84 C84         21.7810    10.1110   -21.9200 c3         1 K8U      -0.063400
     85 C85         20.6740    10.1330   -23.0390 c3         1 K8U      -0.078400
     86 C86         19.6210    11.2600   -23.0310 c3         1 K8U      -0.069400
     87 C87         18.3290    10.9740   -23.8020 c3         1 K8U      -0.074400
     88 C88         18.4840    10.3370   -25.1660 c3         1 K8U      -0.089100
     89 C89          7.8970    17.7450   -24.7020 c3         1 K8U      -0.065400
     90 C90          7.2290    19.1330   -24.7190 c3         1 K8U      -0.077400
     91 C91          5.9490    19.1710   -25.5890 c3         1 K8U      -0.079400
     92 C92          4.8290    20.0570   -24.9970 c3         1 K8U      -0.075400
     93 C93          4.6180    21.4380   -25.6160 c3         1 K8U      -0.070400
     94 C94          4.4790    22.6830   -24.6480 c3         1 K8U      -0.077400
     95 C95          4.3970    22.4150   -23.1380 c3         1 K8U      -0.066400
     96 C96          3.6400    23.5440   -22.4170 c3         1 K8U      -0.087400
     97 C97          2.1260    23.7220   -22.6090 c3         1 K8U      -0.064400
     98 C98          1.7150    24.8010   -23.6070 c3         1 K8U      -0.079400
     99 C99          2.2680    26.2160   -23.3030 c3         1 K8U      -0.079400
    100 CA0          3.2610    26.6980   -24.4020 c3         1 K8U      -0.075400
    101 CA1          4.6380    27.1890   -23.8450 c3         1 K8U      -0.087400
    102 CA2          5.8120    26.7300   -24.7210 c3         1 K8U      -0.090100
    103 H1           0.1190     7.1630   -28.4830 hc         1 K8U       0.081200
    104 H2          -0.9740     8.3110   -29.2460 hc         1 K8U       0.081200
    105 H4           3.0440    10.3610   -31.5160 h1         1 K8U       0.030200
    106 H5           4.4900    11.2960   -31.2070 h1         1 K8U       0.030200
    107 H6           3.7670     9.8000   -29.3910 h1         1 K8U       0.016700
    108 H7           3.8190    12.7290   -28.5230 h1         1 K8U       0.033700
    109 H8           4.2640    11.3410   -27.5410 h1         1 K8U       0.033700
    110 H9          -5.1560     9.6450   -33.1180 hc         1 K8U       0.061200
    111 H10         -4.4000     8.0620   -33.1280 hc         1 K8U       0.061200
    112 H11         -1.0810     9.9460   -30.9670 h1         1 K8U       0.098700
    113 H12         -0.0400     8.0070   -32.7770 h1         1 K8U       0.080200
    114 H13          1.1750     9.3520   -32.7420 h1         1 K8U       0.080200
    115 H14          2.0170    10.7120   -28.0640 ho         1 K8U       0.412000
    116 H15         -0.0090    11.0820   -33.6340 h1         1 K8U       0.034700
    117 H16         -1.4240    11.7770   -32.8370 h1         1 K8U       0.034700
    118 H18          9.2980    12.5700   -28.0500 h1         1 K8U       0.042700
    119 H19          8.4970    13.9810   -28.7870 h1         1 K8U       0.042700
    120 H20          9.8260    14.9010   -27.0700 h1         1 K8U       0.000700
    121 H21          8.9970    12.5920   -25.2450 h1         1 K8U       0.087200
    122 H22         10.4540    12.7380   -26.1600 h1         1 K8U       0.087200
    123 H23         12.7240    16.1950   -24.7170 hc         1 K8U       0.066700
    124 H24         11.1040    16.3400   -24.1010 hc         1 K8U       0.066700
    125 H25          9.5130    17.0270   -25.9700 hc         1 K8U       0.053200
    126 H26          8.4220    18.1550   -26.7960 hc         1 K8U       0.053200
    127 H27         -4.5750     8.8560   -35.4830 hc         1 K8U       0.043200
    128 H28         -2.8990     8.8160   -35.0360 hc         1 K8U       0.043200
    129 H29         -3.2670    11.3460   -34.3840 hc         1 K8U       0.047700
    130 H30         -4.7120    11.1570   -35.4740 hc         1 K8U       0.047700
    131 H31         -2.4390    10.0410   -36.8220 hc         1 K8U       0.052700
    132 H32         -1.8840    11.5210   -36.1110 hc         1 K8U       0.052700
    133 H33         -2.7390    12.1990   -38.2580 hc         1 K8U       0.040700
    134 H34         -3.9860    12.6770   -37.1140 hc         1 K8U       0.040700
    135 H35         -4.5690     9.9890   -37.8680 hc         1 K8U       0.039200
    136 H36         -4.1170    10.7530   -39.3790 hc         1 K8U       0.039200
    137 H37         -5.8530    12.6130   -38.1640 hc         1 K8U       0.041200
    138 H38         -6.3070    11.5190   -39.4760 hc         1 K8U       0.041200
    139 H39         -7.5610    11.5880   -37.0010 ha         1 K8U       0.165000
    140 H40         -6.3860     8.9110   -37.8840 ha         1 K8U       0.170000
    141 H41         -9.0200     9.0760   -36.7380 hc         1 K8U       0.044700
    142 H42         -7.8130     7.8990   -36.3200 hc         1 K8U       0.044700
    143 H43         -7.0880    10.2960   -34.8360 ha         1 K8U       0.189000
    144 H44         -8.4550     9.7210   -32.9770 ha         1 K8U       0.174000
    145 H45        -10.0790     8.0470   -34.9830 hc         1 K8U       0.044200
    146 H46         -9.4180     7.3030   -33.5200 hc         1 K8U       0.044200
    147 H47        -10.7740     9.6440   -32.6450 hc         1 K8U       0.039700
    148 H48        -11.8510     8.8810   -33.8050 hc         1 K8U       0.039700
    149 H49        -11.4490     8.2590   -31.0610 hc         1 K8U       0.042200
    150 H50        -10.7340     6.8840   -31.9220 hc         1 K8U       0.042200
    151 H51        -13.2820     7.4490   -33.1400 hc         1 K8U       0.034700
    152 H52        -12.8200     6.0110   -32.2600 hc         1 K8U       0.034700
    153 H53        -14.8140     7.0540   -31.2330 hc         1 K8U       0.031033
    154 H54        -13.4400     7.2130   -30.1040 hc         1 K8U       0.031033
    155 H55        -13.9490     8.6010   -31.0600 hc         1 K8U       0.031033
    156 H56         -1.7430     5.7800   -28.3660 hc         1 K8U       0.046700
    157 H57         -1.4180     5.4320   -30.0140 hc         1 K8U       0.046700
    158 H58         -2.9810     7.9210   -29.8250 hc         1 K8U       0.054200
    159 H59         -3.7710     6.6420   -28.9270 hc         1 K8U       0.054200
    160 H60         -4.7210     6.1450   -31.0270 ha         1 K8U       0.155000
    161 H61         -1.8630     6.1350   -32.1080 ha         1 K8U       0.190000
    162 H62         -2.9830     5.8650   -34.2700 hc         1 K8U       0.050200
    163 H63         -4.5850     5.7660   -33.4330 hc         1 K8U       0.050200
    164 H64         -4.3170     3.4180   -33.1070 ha         1 K8U       0.162000
    165 H65         -1.5550     3.9800   -34.2750 ha         1 K8U       0.178000
    166 H66         -2.0110     1.6900   -35.2740 hc         1 K8U       0.056200
    167 H67         -1.2860     1.5460   -33.6630 hc         1 K8U       0.056200
    168 H68         -4.3390     1.4680   -33.9560 ha         1 K8U       0.169000
    169 H69         -4.2470    -0.7790   -33.2200 ha         1 K8U       0.161000
    170 H70         -1.9880    -1.7660   -34.1050 hc         1 K8U       0.053200
    171 H71         -1.1780    -0.4690   -33.2270 hc         1 K8U       0.053200
    172 H72         -3.0560    -1.9890   -31.4410 ha         1 K8U       0.168000
    173 H73         -0.1060    -2.5600   -32.0250 ha         1 K8U       0.172000
    174 H74         -1.9510    -3.1420   -29.6310 hc         1 K8U       0.039700
    175 H75         -1.2420    -4.4740   -30.5480 hc         1 K8U       0.039700
    176 H76          0.1380    -2.3290   -28.9330 hc         1 K8U       0.039700
    177 H77          0.0640    -4.0310   -28.5070 hc         1 K8U       0.039700
    178 H78          1.3600    -3.5610   -31.1230 hc         1 K8U       0.044200
    179 H79          2.2260    -2.7560   -29.8220 hc         1 K8U       0.044200
    180 H80          2.2830    -5.0190   -28.6290 hc         1 K8U       0.031700
    181 H81          1.4320    -5.7050   -30.0180 hc         1 K8U       0.031700
    182 H82          3.9110    -6.0820   -30.0400 hc         1 K8U       0.034033
    183 H83          3.3520    -5.1170   -31.4920 hc         1 K8U       0.034033
    184 H84          4.1510    -4.3450   -30.1160 hc         1 K8U       0.034033
    185 H85         11.8520    16.2730   -21.9450 hc         1 K8U       0.046200
    186 H86         12.1310    14.6180   -22.2240 hc         1 K8U       0.046200
    187 H87         14.4440    15.0730   -23.1160 hc         1 K8U       0.043200
    188 H88         14.1890    16.7530   -22.7650 hc         1 K8U       0.043200
    189 H89         15.0340    16.4300   -20.6670 hc         1 K8U       0.031700
    190 H90         13.5310    15.6360   -20.3110 hc         1 K8U       0.031700
    191 H91         14.4600    13.4690   -20.4190 hc         1 K8U       0.035700
    192 H92         15.6770    14.4270   -19.6650 hc         1 K8U       0.035700
    193 H93         15.8250    14.1010   -22.6590 hc         1 K8U       0.046700
    194 H94         16.2340    12.7330   -21.6520 hc         1 K8U       0.046700
    195 H95         18.1840    14.2220   -22.3540 hc         1 K8U       0.035200
    196 H96         17.5370    15.4690   -21.3200 hc         1 K8U       0.035200
    197 H97         17.6770    13.0010   -19.8130 hc         1 K8U       0.038200
    198 H98         19.1430    13.1900   -20.7330 hc         1 K8U       0.038200
    199 H99         19.3100    15.5260   -19.7000 hc         1 K8U       0.035700
    200 H100        18.1200    15.0150   -18.5160 hc         1 K8U       0.035700
    201 H101        20.9880    14.5830   -18.6170 hc         1 K8U       0.033200
    202 H102        19.9270    14.1900   -17.2680 hc         1 K8U       0.033200
    203 H103        19.4660    11.9850   -18.2020 hc         1 K8U       0.047200
    204 H104        20.1720    12.4500   -19.7160 hc         1 K8U       0.047200
    205 H105        21.4630    11.3130   -17.3300 hc         1 K8U       0.034700
    206 H106        22.4040    12.5510   -18.1340 hc         1 K8U       0.034700
    207 H107        21.5810     9.7970   -19.1130 hc         1 K8U       0.034700
    208 H108        23.1060    10.6580   -19.3840 hc         1 K8U       0.034700
    209 H109        21.9880    12.0690   -21.0560 hc         1 K8U       0.044700
    210 H110        20.4590    11.2460   -20.7190 hc         1 K8U       0.044700
    211 H111        21.7990     9.1170   -21.4660 hc         1 K8U       0.034700
    212 H112        22.7520    10.2920   -22.3790 hc         1 K8U       0.034700
    213 H113        20.1850     9.1470   -23.0980 hc         1 K8U       0.032700
    214 H114        21.2050    10.1820   -24.0130 hc         1 K8U       0.032700
    215 H115        20.0920    12.1760   -23.3850 hc         1 K8U       0.037200
    216 H116        19.2970    11.4330   -22.0020 hc         1 K8U       0.037200
    217 H117        17.7500    11.9130   -23.8810 hc         1 K8U       0.041200
    218 H118        17.7110    10.3030   -23.1870 hc         1 K8U       0.041200
    219 H119        17.5520    10.2290   -25.7250 hc         1 K8U       0.031367
    220 H120        19.1570    10.9370   -25.8040 hc         1 K8U       0.031367
    221 H121        18.9580     9.3560   -25.0910 hc         1 K8U       0.031367
    222 H122         7.1530    17.0210   -24.3490 hc         1 K8U       0.048200
    223 H123         8.7200    17.7830   -23.9910 hc         1 K8U       0.048200
    224 H124         7.9490    19.8250   -25.1830 hc         1 K8U       0.029700
    225 H125         7.0560    19.4200   -23.6850 hc         1 K8U       0.029700
    226 H126         5.5550    18.1720   -25.7630 hc         1 K8U       0.056700
    227 H127         6.2340    19.5570   -26.5810 hc         1 K8U       0.056700
    228 H128         3.8950    19.4910   -25.1040 hc         1 K8U       0.038200
    229 H129         5.0080    20.1430   -23.9210 hc         1 K8U       0.038200
    230 H130         5.4750    21.6880   -26.2600 hc         1 K8U       0.035700
    231 H131         3.7450    21.4320   -26.2680 hc         1 K8U       0.035700
    232 H132         5.3990    23.2520   -24.8080 hc         1 K8U       0.031200
    233 H133         3.6390    23.2900   -24.9740 hc         1 K8U       0.031200
    234 H134         3.8530    21.4940   -22.9260 hc         1 K8U       0.043200
    235 H135         5.4010    22.3530   -22.7190 hc         1 K8U       0.043200
    236 H136         3.8550    23.4720   -21.3460 hc         1 K8U       0.029200
    237 H137         4.1440    24.4830   -22.7290 hc         1 K8U       0.029200
    238 H138         1.6460    22.7710   -22.8630 hc         1 K8U       0.037700
    239 H139         1.7280    24.0150   -21.6310 hc         1 K8U       0.037700
    240 H140         1.9420    24.4810   -24.6290 hc         1 K8U       0.037200
    241 H141         0.6110    24.8630   -23.5820 hc         1 K8U       0.037200
    242 H142         2.8370    26.1020   -22.3660 hc         1 K8U       0.039200
    243 H143         1.4660    26.9280   -23.1540 hc         1 K8U       0.039200
    244 H144         2.8030    27.5610   -24.8820 hc         1 K8U       0.044700
    245 H145         3.4730    25.8820   -25.0850 hc         1 K8U       0.044700
    246 H146         4.7860    26.9730   -22.7860 hc         1 K8U       0.028700
    247 H147         4.6220    28.2850   -23.8710 hc         1 K8U       0.028700
    248 H148         6.7490    27.1110   -24.3210 hc         1 K8U       0.035700
    249 H149         5.8880    25.6360   -24.6470 hc         1 K8U       0.035700
    250 H150         5.6520    27.0530   -25.7460 hc         1 K8U       0.035700
@<TRIPOS>BOND
     1     1    12 1   
     2     1    13 2   
     3     1    14 1   
     4     2     3 1   
     5     2    17 1   
     6     3     4 1   
     7     3    15 2   
     8     4    53 1   
     9     4   103 1   
    10     4   104 1   
    11     5     6 1   
    12     5     7 1   
    13     5     8 1   
    14     5    24 1   
    15     7     9 1   
    16     9    10 1   
    17     9   105 1   
    18     9   106 1   
    19    10    11 1   
    20    10    18 1   
    21    10   107 1   
    22    11    19 1   
    23    11   108 1   
    24    11   109 1   
    25    12    37 1   
    26    12   110 1   
    27    12   111 1   
    28    14    16 1   
    29    16    17 1   
    30    16    22 1   
    31    16   112 1   
    32    17   113 1   
    33    17   114 1   
    34    18   115 1   
    35    19    20 1   
    36    20    21 1   
    37    20    23 1   
    38    20    25 1   
    39    22    24 1   
    40    22   116 1   
    41    22   117 1   
    42    25    26 1   
    43    26    27 1   
    44    26   118 1   
    45    26   119 1   
    46    27    28 1   
    47    27    33 1   
    48    27   120 1   
    49    28    29 1   
    50    28   121 1   
    51    28   122 1   
    52    29    30 1   
    53    30    31 1   
    54    30    32 2   
    55    31    71 1   
    56    31   123 1   
    57    31   124 1   
    58    33    34 1   
    59    34    35 1   
    60    34    36 2   
    61    35    89 1   
    62    35   125 1   
    63    35   126 1   
    64    37    38 1   
    65    37   127 1   
    66    37   128 1   
    67    38    39 1   
    68    38   129 1   
    69    38   130 1   
    70    39    40 1   
    71    39   131 1   
    72    39   132 1   
    73    40    41 1   
    74    40   133 1   
    75    40   134 1   
    76    41    42 1   
    77    41   135 1   
    78    41   136 1   
    79    42    43 1   
    80    42   137 1   
    81    42   138 1   
    82    43    44 2   
    83    43   139 1   
    84    44    45 1   
    85    44   140 1   
    86    45    46 1   
    87    45   141 1   
    88    45   142 1   
    89    46    47 2   
    90    46   143 1   
    91    47    48 1   
    92    47   144 1   
    93    48    49 1   
    94    48   145 1   
    95    48   146 1   
    96    49    50 1   
    97    49   147 1   
    98    49   148 1   
    99    50    51 1   
   100    50   149 1   
   101    50   150 1   
   102    51    52 1   
   103    51   151 1   
   104    51   152 1   
   105    52   153 1   
   106    52   154 1   
   107    52   155 1   
   108    53    54 1   
   109    53   156 1   
   110    53   157 1   
   111    54    55 1   
   112    54   158 1   
   113    54   159 1   
   114    55    56 2   
   115    55   160 1   
   116    56    57 1   
   117    56   161 1   
   118    57    58 1   
   119    57   162 1   
   120    57   163 1   
   121    58    59 2   
   122    58   164 1   
   123    59    60 1   
   124    59   165 1   
   125    60    61 1   
   126    60   166 1   
   127    60   167 1   
   128    61    62 2   
   129    61   168 1   
   130    62    63 1   
   131    62   169 1   
   132    63    64 1   
   133    63   170 1   
   134    63   171 1   
   135    64    65 2   
   136    64   172 1   
   137    65    66 1   
   138    65   173 1   
   139    66    67 1   
   140    66   174 1   
   141    66   175 1   
   142    67    68 1   
   143    67   176 1   
   144    67   177 1   
   145    68    69 1   
   146    68   178 1   
   147    68   179 1   
   148    69    70 1   
   149    69   180 1   
   150    69   181 1   
   151    70   182 1   
   152    70   183 1   
   153    70   184 1   
   154    71    72 1   
   155    71   185 1   
   156    71   186 1   
   157    72    73 1   
   158    72   187 1   
   159    72   188 1   
   160    73    74 1   
   161    73   189 1   
   162    73   190 1   
   163    74    75 1   
   164    74   191 1   
   165    74   192 1   
   166    75    76 1   
   167    75   193 1   
   168    75   194 1   
   169    76    77 1   
   170    76   195 1   
   171    76   196 1   
   172    77    78 1   
   173    77   197 1   
   174    77   198 1   
   175    78    79 1   
   176    78   199 1   
   177    78   200 1   
   178    79    80 1   
   179    79   201 1   
   180    79   202 1   
   181    80    81 1   
   182    80   203 1   
   183    80   204 1   
   184    81    82 1   
   185    81   205 1   
   186    81   206 1   
   187    82    83 1   
   188    82   207 1   
   189    82   208 1   
   190    83    84 1   
   191    83   209 1   
   192    83   210 1   
   193    84    85 1   
   194    84   211 1   
   195    84   212 1   
   196    85    86 1   
   197    85   213 1   
   198    85   214 1   
   199    86    87 1   
   200    86   215 1   
   201    86   216 1   
   202    87    88 1   
   203    87   217 1   
   204    87   218 1   
   205    88   219 1   
   206    88   220 1   
   207    88   221 1   
   208    89    90 1   
   209    89   222 1   
   210    89   223 1   
   211    90    91 1   
   212    90   224 1   
   213    90   225 1   
   214    91    92 1   
   215    91   226 1   
   216    91   227 1   
   217    92    93 1   
   218    92   228 1   
   219    92   229 1   
   220    93    94 1   
   221    93   230 1   
   222    93   231 1   
   223    94    95 1   
   224    94   232 1   
   225    94   233 1   
   226    95    96 1   
   227    95   234 1   
   228    95   235 1   
   229    96    97 1   
   230    96   236 1   
   231    96   237 1   
   232    97    98 1   
   233    97   238 1   
   234    97   239 1   
   235    98    99 1   
   236    98   240 1   
   237    98   241 1   
   238    99   100 1   
   239    99   242 1   
   240    99   243 1   
   241   100   101 1   
   242   100   244 1   
   243   100   245 1   
   244   101   102 1   
   245   101   246 1   
   246   101   247 1   
   247   102   248 1   
   248   102   249 1   
   249   102   250 1   
@<TRIPOS>SUBSTRUCTURE
     1 K8U         1 TEMP              0 ****  ****    0 ROOT
