@<TRIPOS>MOLECULE
K8V
   31    31     1     0     0
SMALL
bcc


@<TRIPOS>ATOM
      1 C10          0.7140    -0.9580     0.2240 ca         1 K8V       0.001600
      2 C13          3.4930    -0.7220    -0.1220 ca         1 K8V      -0.115600
      3 C17          2.7410     0.3660     0.3280 ca         1 K8V      -0.077600
      4 C21          1.3660     0.2400     0.5110 ca         1 K8V      -0.138000
      5 C02         -6.7270    -0.1450    -0.4640 c          1 K8V       0.926600
      6 C04         -5.5150    -0.7100     0.2990 c3         1 K8V      -0.202400
      7 C05         -4.1570    -0.1610    -0.1110 c3         1 K8V      -0.048400
      8 C06         -3.0340    -0.8170     0.6830 c3         1 K8V      -0.163400
      9 C07         -1.6650    -0.2440     0.3830 c          1 K8V       0.659100
     10 C11          1.4620    -2.0400    -0.2340 ca         1 K8V      -0.236000
     11 C12          2.8310    -1.9130    -0.4050 ca         1 K8V      -0.124000
     12 C14          5.0060    -0.6740    -0.2270 c          1 K8V       0.944200
     13 C18          3.3570     1.7360     0.5580 c          1 K8V       0.956200
     14 N09         -0.6630    -1.1590     0.4160 ns         1 K8V      -0.472100
     15 O01         -6.5070     0.6230    -1.4210 o          1 K8V      -0.859300
     16 O03         -7.8470    -0.5220    -0.0590 o          1 K8V      -0.859300
     17 O08         -1.4880     0.9420     0.1650 o          1 K8V      -0.590100
     18 O15          5.5180    -1.2450    -1.2110 o          1 K8V      -0.849800
     19 O16          5.6060    -0.1100     0.7070 o          1 K8V      -0.849800
     20 O19          3.9560     2.2310    -0.4140 o          1 K8V      -0.846800
     21 O20          3.1490     2.2650     1.6670 o          1 K8V      -0.846800
     22 H1           0.8100     1.0870     0.8810 ha         1 K8V       0.145000
     23 H2          -5.6680    -0.5440     1.3710 hc         1 K8V       0.008200
     24 H3          -5.5230    -1.8000     0.1790 hc         1 K8V       0.008200
     25 H4          -3.9970    -0.3280    -1.1790 hc         1 K8V       0.054700
     26 H5          -4.1300     0.9190     0.0400 hc         1 K8V       0.054700
     27 H6          -3.2060    -0.6700     1.7560 hc         1 K8V       0.030700
     28 H7          -3.0470    -1.8990     0.5260 hc         1 K8V       0.030700
     29 H8           0.9730    -2.9810    -0.4590 ha         1 K8V       0.072000
     30 H9           3.3940    -2.7680    -0.7590 ha         1 K8V       0.105000
     31 H10         -0.9430    -2.1220     0.5140 hn         1 K8V       0.283500
@<TRIPOS>BOND
     1     1     4 ar  
     2     1    10 ar  
     3     1    14 1   
     4     2     3 ar  
     5     2    11 ar  
     6     2    12 1   
     7     3     4 ar  
     8     3    13 1   
     9     4    22 1   
    10     5     6 1   
    11     5    15 1   
    12     5    16 1   
    13     6     7 1   
    14     6    23 1   
    15     6    24 1   
    16     7     8 1   
    17     7    25 1   
    18     7    26 1   
    19     8     9 1   
    20     8    27 1   
    21     8    28 1   
    22     9    14 1   
    23     9    17 2   
    24    10    11 ar  
    25    10    29 1   
    26    11    30 1   
    27    12    18 1   
    28    12    19 1   
    29    13    20 1   
    30    13    21 1   
    31    14    31 1   
@<TRIPOS>SUBSTRUCTURE
     1 K8V         1 TEMP              0 ****  ****    0 ROOT
