@<TRIPOS>MOLECULE
K8V
   31    31     1     0     0
SMALL
No Charge or Current Charge


@<TRIPOS>ATOM
      1 C10          0.6380    -0.8700     0.2930 ca         1 K8V      -0.091000
      2 C13          3.4240    -0.6610    -0.2200 ca         1 K8V      -0.115600
      3 C17          2.7140     0.4500     0.3040 ca         1 K8V      -0.077600
      4 C21          1.3280     0.3330     0.5610 ca         1 K8V      -0.120000
      5 C02         -6.3960    -0.2880    -0.9970 c          1 K8V       0.716000
      6 C04         -5.5000    -0.9200     0.0860 c3         1 K8V      -0.202400
      7 C05         -4.0900    -0.2820     0.0510 c3         1 K8V      -0.048400
      8 C06         -3.1330    -0.8670     1.1170 c3         1 K8V      -0.163400
      9 C07         -1.7410    -0.2190     1.0460 c          1 K8V       0.592100
     10 C11          1.3500    -1.9560    -0.2390 ca         1 K8V      -0.218000
     11 C12          2.7270    -1.8560    -0.4930 ca         1 K8V      -0.106000
     12 C14          4.9150    -0.5950    -0.4640 c          1 K8V       0.733600
     13 C18          3.4060     1.7720     0.5670 c          1 K8V       0.745600
     14 N09         -0.7540    -1.0510     0.5250 ns         1 K8V      -0.146000
     15 O01         -6.3900    -0.7850    -2.1130 o          1 K8V      -0.754000
     16 O03         -7.0340     0.7120    -0.7070 o          1 K8V      -0.754000
     17 O08         -1.5460     0.9220     1.4510 o          1 K8V      -0.590100
     18 O15          5.3370    -0.9350    -1.5610 o          1 K8V      -0.744500
     19 O16          5.6440    -0.3220     0.4800 o          1 K8V      -0.744500
     20 O19          3.9650     2.3300    -0.3680 o          1 K8V      -0.741500
     21 O20          3.2710     2.2870     1.6700 o          1 K8V      -0.741500
     22 H1           0.8100     1.1980     0.9590 ha         1 K8V       0.127000
     23 H2          -5.8990    -0.7110     1.0860 hc         1 K8V       0.008200
     24 H3          -5.3510    -1.9890    -0.1140 hc         1 K8V       0.008200
     25 H4          -3.6520    -0.4280    -0.9450 hc         1 K8V       0.054700
     26 H5          -4.1800     0.8020     0.2020 hc         1 K8V       0.054700
     27 H6          -3.5620    -0.6770     2.1090 hc         1 K8V       0.030700
     28 H7          -3.0510    -1.9490     0.9520 hc         1 K8V       0.030700
     29 H8           0.8360    -2.8900    -0.4540 ha         1 K8V       0.054000
     30 H9           3.2610    -2.7140    -0.8940 ha         1 K8V       0.087000
     31 H10         -1.0910    -1.9660     0.2540 hn         1 K8V       0.117000
@<TRIPOS>BOND
     1     1     4 ar  
     2     1    10 ar  
     3     1    14 1   
     4     2     3 ar  
     5     2    11 ar  
     6     2    12 1   
     7     3     4 ar  
     8     3    13 1   
     9     4    22 1   
    10     5     6 1   
    11     5    15 1   
    12     5    16 1   
    13     6     7 1   
    14     6    23 1   
    15     6    24 1   
    16     7     8 1   
    17     7    25 1   
    18     7    26 1   
    19     8     9 1   
    20     8    27 1   
    21     8    28 1   
    22     9    14 1   
    23     9    17 2   
    24    10    11 ar  
    25    10    29 1   
    26    11    30 1   
    27    12    18 1   
    28    12    19 1   
    29    13    20 1   
    30    13    21 1   
    31    14    31 1   
@<TRIPOS>SUBSTRUCTURE
     1 K8V         1 TEMP              0 ****  ****    0 ROOT
