@<TRIPOS>MOLECULE
K8W
   34    36     1     0     0
SMALL
No Charge or Current Charge


@<TRIPOS>ATOM
      1 C10         18.1850    21.8810    -4.9900 ca         1 K8W      -0.056000
      2 C13         18.7000    19.1440    -4.7430 ca         1 K8W      -0.087800
      3 C17         19.0930    17.7560    -4.7840 cc         1 K8W      -0.144200
      4 C02         20.1790    23.5340    -9.4010 ca         1 K8W      -0.185300
      5 C03         19.5350    22.3120    -9.6600 ca         1 K8W      -0.038000
      6 C04         19.1150    21.5450    -8.5620 ca         1 K8W      -0.202000
      7 C05         19.3570    21.9990    -7.2420 cp         1 K8W       0.443500
      8 C07         20.3430    23.9050    -8.0530 ca         1 K8W       0.602900
      9 C09         18.8970    21.2320    -6.0370 cp         1 K8W      -0.118500
     10 C11         17.7320    21.1700    -3.8540 ca         1 K8W      -0.122000
     11 C12         17.9880    19.7900    -3.7240 ca         1 K8W      -0.061000
     12 C14         19.1260    19.8440    -5.8460 ca         1 K8W      -0.142000
     13 C16         19.8350    17.4500    -5.9280 cd         1 K8W      -0.188000
     14 C18         20.3830    16.1330    -6.2780 cf         1 K8W       0.683500
     15 N06         19.9540    23.1890    -7.0090 nb         1 K8W      -0.748000
     16 N08         20.9300    25.0350    -7.6440 nv         1 K8W      -1.056900
     17 N19         21.2490    16.0640    -7.2770 nv         1 K8W      -1.026200
     18 N20         20.0550    15.0700    -5.6640 n2         1 K8W      -0.834100
     19 S15         20.0840    18.8830    -6.9880 ss         1 K8W       0.099400
     20 H101        17.9730    22.9460    -5.0650 ha         1 K8W       0.131000
     21 H171        18.8500    17.0360    -4.0050 ha         1 K8W       0.206000
     22 H011        20.2120    25.4150   -10.4970 hc         1 K8W       0.041367
     23 H012        21.7500    24.5300   -10.5310 hc         1 K8W       0.041367
     24 H013        20.3920    23.9900   -11.5270 hc         1 K8W       0.041367
     25 H031        19.3590    21.9680   -10.6770 ha         1 K8W       0.117000
     26 H041        18.5900    20.6090    -8.7250 ha         1 K8W       0.134000
     27 H111        17.1860    21.6930    -3.0720 ha         1 K8W       0.118000
     28 H121        17.6480    19.2420    -2.8480 ha         1 K8W       0.118000
     29 H082        21.1840    25.0450    -6.6640 hn         1 K8W       0.470500
     30 H081        21.5670    25.4910    -8.2860 hn         1 K8W       0.470500
     31 H191        21.7570    15.1970    -7.3940 hn         1 K8W       0.468000
     32 H1          21.7020    16.9090    -7.5980 hn         1 K8W       0.468000
     33 H201        19.2960    15.3040    -5.0150 hn         1 K8W       0.392400
     34 C01         20.6590    24.4140   -10.5520 c3         1 K8W      -0.036800
@<TRIPOS>BOND
     1     1     9 ar  
     2     1    10 ar  
     3     1    20 1   
     4     2     3 1   
     5     2    11 ar  
     6     2    12 ar  
     7     3    13 2   
     8     3    21 1   
     9     4     5 ar  
    10     4     8 ar  
    11     4    34 1   
    12     5     6 ar  
    13     5    25 1   
    14     6     7 ar  
    15     6    26 1   
    16     7     9 1   
    17     7    15 ar  
    18     8    15 ar  
    19     8    16 1   
    20     9    12 ar  
    21    10    11 ar  
    22    10    27 1   
    23    11    28 1   
    24    12    19 1   
    25    13    14 1   
    26    13    19 1   
    27    14    17 1   
    28    14    18 2   
    29    16    29 1   
    30    16    30 1   
    31    17    31 1   
    32    17    32 1   
    33    18    33 1   
    34    22    34 1   
    35    23    34 1   
    36    24    34 1   
@<TRIPOS>SUBSTRUCTURE
     1 K8W         1 TEMP              0 ****  ****    0 ROOT
