@<TRIPOS>MOLECULE
K8W
   34    36     1     0     0
SMALL
abcg2


@<TRIPOS>ATOM
      1 C10         18.3480    21.8710    -4.9970 ca         1 K8W      -0.056000
      2 C13         18.7520    19.1400    -4.7560 ca         1 K8W      -0.087800
      3 C17         19.0930    17.7530    -4.8090 cc         1 K8W      -0.144200
      4 C02         20.1710    23.5240    -9.3850 ca         1 K8W      -0.185300
      5 C03         19.6400    22.2710    -9.5970 ca         1 K8W      -0.038000
      6 C04         19.2310    21.4710    -8.5310 ca         1 K8W      -0.202000
      7 C05         19.3850    21.9730    -7.2500 cp         1 K8W       0.443500
      8 C07         20.2680    23.9460    -8.0370 ca         1 K8W       0.602900
      9 C09         18.9610    21.2120    -6.0540 cp         1 K8W      -0.118500
     10 C11         17.9230    21.1940    -3.8510 ca         1 K8W      -0.122000
     11 C12         18.1170    19.8350    -3.7220 ca         1 K8W      -0.061000
     12 C14         19.1640    19.8340    -5.9100 ca         1 K8W      -0.142000
     13 C16         19.7490    17.4150    -5.9430 cd         1 K8W      -0.188000
     14 C18         20.2410    16.0720    -6.3130 cf         1 K8W       0.683500
     15 N06         19.8890    23.1860    -7.0180 nb         1 K8W      -0.748000
     16 N08         20.7240    25.1960    -7.7370 nv         1 K8W      -1.056900
     17 N19         21.3370    16.0700    -7.1270 nv         1 K8W      -1.026200
     18 N20         19.6810    14.9830    -5.9520 n2         1 K8W      -0.834100
     19 S15         19.9720    18.7660    -7.0170 ss         1 K8W       0.099400
     20 H101        18.1890    22.9380    -5.0730 ha         1 K8W       0.131000
     21 H171        18.8780    17.0560    -4.0100 ha         1 K8W       0.206000
     22 H011        20.0340    25.3520   -10.5100 hc         1 K8W       0.041367
     23 H012        21.6570    24.6860   -10.4320 hc         1 K8W       0.041367
     24 H013        20.4510    23.9330   -11.4690 hc         1 K8W       0.041367
     25 H031        19.5240    21.9090   -10.6120 ha         1 K8W       0.117000
     26 H041        18.7720    20.5110    -8.7190 ha         1 K8W       0.134000
     27 H111        17.4380    21.7470    -3.0580 ha         1 K8W       0.118000
     28 H121        17.7910    19.3100    -2.8340 ha         1 K8W       0.118000
     29 H082        20.9590    25.3580    -6.7720 hn         1 K8W       0.470500
     30 H081        21.3400    25.6530    -8.3890 hn         1 K8W       0.470500
     31 H191        21.7540    15.1670    -7.2890 hn         1 K8W       0.468000
     32 H1          22.0130    16.8080    -7.0100 hn         1 K8W       0.468000
     33 H201        18.8190    15.1680    -5.4520 hn         1 K8W       0.392400
     34 C01         20.6000    24.4180   -10.5050 c3         1 K8W      -0.036800
@<TRIPOS>BOND
     1     1     9 ar  
     2     1    10 ar  
     3     1    20 1   
     4     2     3 1   
     5     2    11 ar  
     6     2    12 ar  
     7     3    13 2   
     8     3    21 1   
     9     4     5 ar  
    10     4     8 ar  
    11     4    34 1   
    12     5     6 ar  
    13     5    25 1   
    14     6     7 ar  
    15     6    26 1   
    16     7     9 1   
    17     7    15 ar  
    18     8    15 ar  
    19     8    16 1   
    20     9    12 ar  
    21    10    11 ar  
    22    10    27 1   
    23    11    28 1   
    24    12    19 1   
    25    13    14 1   
    26    13    19 1   
    27    14    17 1   
    28    14    18 2   
    29    16    29 1   
    30    16    30 1   
    31    17    31 1   
    32    17    32 1   
    33    18    33 1   
    34    22    34 1   
    35    23    34 1   
    36    24    34 1   
@<TRIPOS>SUBSTRUCTURE
     1 K8W         1 TEMP              0 ****  ****    0 ROOT
