@<TRIPOS>MOLECULE
K8X
   15    16     1     0     0
SMALL
No Charge or Current Charge


@<TRIPOS>ATOM
      1 C1          -1.4180     1.0380     0.0000 ca         1 K8X       0.218000
      2 C2          -0.6790     2.2290    -0.0170 ca         1 K8X      -0.064200
      3 C3           0.6860     2.2540    -0.0360 ca         1 K8X       0.088400
      4 C4           1.4230     1.0520    -0.0380 ca         1 K8X       0.276000
      5 C5           0.7170    -0.1770    -0.0200 ca         1 K8X       0.215000
      6 C6          -0.7050    -0.1850    -0.0010 ca         1 K8X       0.252000
      7 I13         -3.6000     1.1310     0.0290 i          1 K8X      -0.268000
      8 I15         -1.8060    -2.0850     0.0260 i          1 K8X      -0.249000
      9 I17          1.8300    -2.0730    -0.0230 i          1 K8X      -0.251000
     10 I19          3.6100     1.1300    -0.0670 i          1 K8X      -0.236000
     11 N21         -1.0960     3.5300    -0.0200 na         1 K8X      -0.301600
     12 C23          0.0420     4.3300    -0.0410 cc         1 K8X       0.431700
     13 N25          1.1590     3.5720    -0.0510 nd         1 K8X      -0.556100
     14 H23         -0.0040     5.4130    -0.0470 h5         1 K8X       0.072800
     15 HN21        -2.0520     3.8670    -0.0100 hn         1 K8X       0.372000
@<TRIPOS>BOND
     1     1     2 ar  
     2     1     6 ar  
     3     1     7 1   
     4     2     3 ar  
     5     2    11 1   
     6     3     4 ar  
     7     3    13 1   
     8     4     5 ar  
     9     4    10 1   
    10     5     6 ar  
    11     5     9 1   
    12     6     8 1   
    13    11    12 1   
    14    11    15 1   
    15    12    13 2   
    16    12    14 1   
@<TRIPOS>SUBSTRUCTURE
     1 K8X         1 TEMP              0 ****  ****    0 ROOT
