@<TRIPOS>MOLECULE
K8X
   15    16     1     0     0
SMALL
bcc


@<TRIPOS>ATOM
      1 C1          -1.4270     1.0110     0.0020 ca         1 K8X       0.080900
      2 C2          -0.7090     2.1990    -0.0160 ca         1 K8X      -0.064200
      3 C3           0.6930     2.2280    -0.0350 ca         1 K8X       0.088400
      4 C4           1.4110     1.0350    -0.0370 ca         1 K8X       0.138900
      5 C5           0.7130    -0.1660    -0.0210 ca         1 K8X       0.077900
      6 C6          -0.7060    -0.1780    -0.0010 ca         1 K8X       0.114900
      7 I13         -3.5110     1.1590     0.0300 i          1 K8X      -0.130900
      8 I15         -1.7620    -1.9930     0.0220 i          1 K8X      -0.111900
      9 I17          1.7950    -1.9680    -0.0240 i          1 K8X      -0.113900
     10 I19          3.4920     1.2220    -0.0640 i          1 K8X      -0.098900
     11 N21         -1.0810     3.5100    -0.0200 na         1 K8X      -0.251300
     12 C23          0.0550     4.2430    -0.0410 cc         1 K8X       0.431700
     13 N25          1.1380     3.5190    -0.0510 nd         1 K8X      -0.556100
     14 H23          0.0260     5.3220    -0.0490 h5         1 K8X       0.072800
     15 HN21        -2.0190     3.8830    -0.0110 hn         1 K8X       0.321700
@<TRIPOS>BOND
     1     1     2 ar  
     2     1     6 ar  
     3     1     7 1   
     4     2     3 ar  
     5     2    11 1   
     6     3     4 ar  
     7     3    13 1   
     8     4     5 ar  
     9     4    10 1   
    10     5     6 ar  
    11     5     9 1   
    12     6     8 1   
    13    11    12 1   
    14    11    15 1   
    15    12    13 2   
    16    12    14 1   
@<TRIPOS>SUBSTRUCTURE
     1 K8X         1 TEMP              0 ****  ****    0 ROOT
