@<TRIPOS>MOLECULE
K8Y
   28    28     1     0     0
SMALL
abcg2


@<TRIPOS>ATOM
      1 C10         -0.9970    -2.0270     0.0290 ca         1 K8Y      -0.221000
      2 C13         -4.5560    -0.7160     0.1960 c          1 K8Y       0.740600
      3 C17         -2.9260     1.8040    -0.1730 c          1 K8Y       0.738600
      4 C20         -0.8900     0.3670    -0.0850 ca         1 K8Y      -0.120000
      5 C02          5.9950    -0.1800     0.1470 c          1 K8Y       0.713000
      6 C04          4.5410     0.3250     0.1580 c3         1 K8Y      -0.194400
      7 C05          3.5270    -0.6850    -0.3560 c3         1 K8Y      -0.135400
      8 C06          2.1220    -0.1300    -0.4350 c          1 K8Y       0.587100
      9 C09         -0.2350    -0.8600    -0.0470 ca         1 K8Y      -0.089000
     10 C11         -2.3790    -1.9520     0.0620 ca         1 K8Y      -0.108000
     11 C12         -3.0440    -0.7270     0.0400 ca         1 K8Y      -0.116600
     12 C16         -2.2810     0.4370    -0.0490 ca         1 K8Y      -0.084600
     13 N08          1.1610    -1.0030    -0.0370 ns         1 K8Y      -0.146000
     14 O01          6.8350     0.5270     0.7450 o          1 K8Y      -0.761500
     15 O03          6.2330    -1.2390    -0.4670 o          1 K8Y      -0.761500
     16 O07          1.8850     0.9870    -0.8670 o          1 K8Y      -0.610100
     17 O14         -5.1900    -1.5200    -0.5160 o          1 K8Y      -0.748000
     18 O15         -5.0200     0.0450     1.0600 o          1 K8Y      -0.748000
     19 O18         -2.4690     2.7000     0.5660 o          1 K8Y      -0.743000
     20 O19         -3.7990     1.9240    -1.0510 o          1 K8Y      -0.743000
     21 H1          -0.5060    -2.9930     0.0650 ha         1 K8Y       0.054000
     22 H2          -0.3210     1.2810    -0.1460 ha         1 K8Y       0.134000
     23 H3           4.2820     0.6450     1.1710 hc         1 K8Y       0.034200
     24 H4           4.4960     1.2300    -0.4560 hc         1 K8Y       0.034200
     25 H5           3.8040    -1.0020    -1.3650 hc         1 K8Y       0.045200
     26 H6           3.5450    -1.5850     0.2630 hc         1 K8Y       0.045200
     27 H7          -2.9470    -2.8720     0.1240 ha         1 K8Y       0.083000
     28 H8           1.4840    -1.9150     0.2480 hn         1 K8Y       0.120000
@<TRIPOS>BOND
     1     1     9 ar  
     2     1    10 ar  
     3     1    21 1   
     4     2    11 1   
     5     2    17 1   
     6     2    18 1   
     7     3    12 1   
     8     3    19 1   
     9     3    20 1   
    10     4     9 ar  
    11     4    12 ar  
    12     4    22 1   
    13     5     6 1   
    14     5    14 1   
    15     5    15 1   
    16     6     7 1   
    17     6    23 1   
    18     6    24 1   
    19     7     8 1   
    20     7    25 1   
    21     7    26 1   
    22     8    13 1   
    23     8    16 2   
    24     9    13 1   
    25    10    11 ar  
    26    10    27 1   
    27    11    12 ar  
    28    13    28 1   
@<TRIPOS>SUBSTRUCTURE
     1 K8Y         1 TEMP              0 ****  ****    0 ROOT
