@<TRIPOS>MOLECULE
K8Y
   28    28     1     0     0
SMALL
No Charge or Current Charge


@<TRIPOS>ATOM
      1 C10         -0.8720    -1.8550     0.4720 ca         1 K8Y      -0.221000
      2 C13         -4.5020    -0.6610     0.5360 c          1 K8Y       0.740600
      3 C17         -3.1010     1.6640    -0.7190 c          1 K8Y       0.738600
      4 C20         -0.9360     0.3900    -0.4420 ca         1 K8Y      -0.120000
      5 C02          5.9030    -0.4360     0.3890 c          1 K8Y       0.713000
      6 C04          4.4820     0.1540     0.3610 c3         1 K8Y      -0.194400
      7 C05          3.6110    -0.5670    -0.7070 c3         1 K8Y      -0.135400
      8 C06          2.1770    -0.0100    -0.7630 c          1 K8Y       0.587100
      9 C09         -0.1940    -0.7530    -0.0740 ca         1 K8Y      -0.089000
     10 C11         -2.2630    -1.8230     0.6530 ca         1 K8Y      -0.108000
     11 C12         -3.0100    -0.6830     0.2910 ca         1 K8Y      -0.116600
     12 C16         -2.3390     0.4340    -0.2720 ca         1 K8Y      -0.084600
     13 N08          1.2170    -0.8610    -0.2220 ns         1 K8Y      -0.146000
     14 O01          6.1160    -1.3930     1.1180 o          1 K8Y      -0.761500
     15 O03          6.7420     0.0430    -0.3580 o          1 K8Y      -0.761500
     16 O07          1.9330     1.0770    -1.2760 o          1 K8Y      -0.610100
     17 O14         -5.1740    -1.5900     0.1060 o          1 K8Y      -0.748000
     18 O15         -4.9580     0.2170     1.2560 o          1 K8Y      -0.748000
     19 O18         -2.7220     2.7570    -0.3180 o          1 K8Y      -0.743000
     20 O19         -3.9820     1.5280    -1.5580 o          1 K8Y      -0.743000
     21 H1          -0.3180    -2.7440     0.7620 ha         1 K8Y       0.054000
     22 H2          -0.4480     1.2590    -0.8710 ha         1 K8Y       0.134000
     23 H3           3.9810    -0.0160     1.3210 hc         1 K8Y       0.034200
     24 H4           4.5150     1.2090     0.0610 hc         1 K8Y       0.034200
     25 H5           4.0800    -0.4270    -1.6880 hc         1 K8Y       0.045200
     26 H6           3.5850    -1.6370    -0.4630 hc         1 K8Y       0.045200
     27 H7          -2.7660    -2.6840     1.0870 ha         1 K8Y       0.083000
     28 H8           1.5950    -1.7270     0.1410 hn         1 K8Y       0.120000
@<TRIPOS>BOND
     1     1     9 ar  
     2     1    10 ar  
     3     1    21 1   
     4     2    11 1   
     5     2    17 1   
     6     2    18 1   
     7     3    12 1   
     8     3    19 1   
     9     3    20 1   
    10     4     9 ar  
    11     4    12 ar  
    12     4    22 1   
    13     5     6 1   
    14     5    14 1   
    15     5    15 1   
    16     6     7 1   
    17     6    23 1   
    18     6    24 1   
    19     7     8 1   
    20     7    25 1   
    21     7    26 1   
    22     8    13 1   
    23     8    16 2   
    24     9    13 1   
    25    10    11 ar  
    26    10    27 1   
    27    11    12 ar  
    28    13    28 1   
@<TRIPOS>SUBSTRUCTURE
     1 K8Y         1 TEMP              0 ****  ****    0 ROOT
