@<TRIPOS>MOLECULE
K90
   38    39     1     0     0
SMALL
No Charge or Current Charge


@<TRIPOS>ATOM
      1 C10         62.5570    26.1410  -185.2920 c3         1 K90       0.251900
      2 C12         60.7330    27.8470  -185.2240 c6         1 K90       0.161800
      3 C13         59.2970    28.2150  -185.7190 c6         1 K90       0.163300
      4 C15         58.7410    25.8350  -185.8790 c6         1 K90       0.163300
      5 C16         60.1770    25.4660  -185.3830 c6         1 K90       0.161800
      6 C17         56.9240    27.5150  -185.8130 c3         1 K90       0.153100
      7 C02         67.6310    29.1600  -187.1030 ca         1 K90       0.603900
      8 C03         67.3580    30.3240  -187.8260 ca         1 K90      -0.229000
      9 C04         66.0170    30.6680  -188.0580 ca         1 K90      -0.001300
     10 C05         65.0350    29.8080  -187.5410 ca         1 K90      -0.200000
     11 C06         65.4320    28.6610  -186.8300 ca         1 K90       0.523000
     12 C08         64.4530    27.7630  -186.2910 cg         1 K90      -0.220000
     13 C09         63.6100    27.0110  -185.8390 c1         1 K90      -0.100100
     14 N01         66.7230    28.3340  -186.6110 nb         1 K90      -0.734000
     15 N02         68.8680    28.7370  -186.8320 nv         1 K90      -1.059900
     16 N11         61.1880    26.5110  -185.7320 n3         1 K90      -0.710600
     17 N14         58.2900    27.1660  -185.3710 n3         1 K90      -0.717600
     18 H1          62.7850    25.1140  -185.6110 h1         1 K90       0.050700
     19 H2          62.6240    26.1580  -184.1960 h1         1 K90       0.050700
     20 H3          61.4200    28.6420  -185.5500 h1         1 K90       0.040700
     21 H4          60.7350    27.8540  -184.1240 h1         1 K90       0.040700
     22 H5          59.3310    28.3590  -186.8090 h1         1 K90       0.038700
     23 H6          59.0100    29.1800  -185.2770 h1         1 K90       0.038700
     24 H7          58.0450    25.0480  -185.5540 h1         1 K90       0.038700
     25 H8          58.7410    25.8300  -186.9790 h1         1 K90       0.038700
     26 H9          60.1420    25.3240  -184.2920 h1         1 K90       0.040700
     27 H10         60.4600    24.5000  -185.8240 h1         1 K90       0.040700
     28 H11         56.6090    28.4740  -185.3790 h1         1 K90       0.030367
     29 H12         56.8750    27.6000  -186.9070 h1         1 K90       0.030367
     30 H13         56.2060    26.7470  -185.4950 h1         1 K90       0.030367
     31 H14         68.1670    30.9470  -188.1950 ha         1 K90       0.119000
     32 H15         63.9800    30.0210  -187.6840 ha         1 K90       0.127000
     33 H16         64.7050    31.7860  -189.3810 hc         1 K90       0.047367
     34 H17         65.5160    32.7740  -188.1540 hc         1 K90       0.047367
     35 H18         66.4180    32.1860  -189.5610 hc         1 K90       0.047367
     36 H19         68.9290    27.7750  -186.5180 hn         1 K90       0.473000
     37 H20         69.6210    29.0690  -187.4250 hn         1 K90       0.473000
     38 C07         65.6440    31.9220  -188.8310 c3         1 K90      -0.053800
@<TRIPOS>BOND
     1     1    13 1   
     2     1    16 1   
     3     1    18 1   
     4     1    19 1   
     5     2     3 1   
     6     2    16 1   
     7     2    20 1   
     8     2    21 1   
     9     3    17 1   
    10     3    22 1   
    11     3    23 1   
    12     4     5 1   
    13     4    17 1   
    14     4    24 1   
    15     4    25 1   
    16     5    16 1   
    17     5    26 1   
    18     5    27 1   
    19     6    17 1   
    20     6    28 1   
    21     6    29 1   
    22     6    30 1   
    23     7     8 ar  
    24     7    14 ar  
    25     7    15 1   
    26     8     9 ar  
    27     8    31 1   
    28     9    10 ar  
    29     9    38 1   
    30    10    11 ar  
    31    10    32 1   
    32    11    12 1   
    33    11    14 ar  
    34    12    13 3   
    35    15    36 1   
    36    15    37 1   
    37    33    38 1   
    38    34    38 1   
    39    35    38 1   
@<TRIPOS>SUBSTRUCTURE
     1 K90         1 TEMP              0 ****  ****    0 ROOT
