@<TRIPOS>MOLECULE
K90
   38    39     1     0     0
SMALL
abcg2


@<TRIPOS>ATOM
      1 C10         62.4180    26.7340  -184.7170 c3         1 K90       0.251900
      2 C12         60.5530    28.0020  -185.5610 c6         1 K90       0.161800
      3 C13         59.2550    27.9140  -186.3390 c6         1 K90       0.163300
      4 C15         58.9430    25.6860  -185.5800 c6         1 K90       0.163300
      5 C16         60.2390    25.7670  -184.7980 c6         1 K90       0.161800
      6 C17         57.0710    26.9330  -186.3980 c3         1 K90       0.153100
      7 C02         67.3060    28.7220  -187.8780 ca         1 K90       0.603900
      8 C03         67.2680    30.1150  -188.0870 ca         1 K90      -0.229000
      9 C04         66.2090    30.8460  -187.5920 ca         1 K90      -0.001300
     10 C05         65.2070    30.1630  -186.8920 ca         1 K90      -0.200000
     11 C06         65.3290    28.7930  -186.7380 ca         1 K90       0.523000
     12 C08         64.3160    28.0670  -186.0290 cg         1 K90      -0.220000
     13 C09         63.4540    27.4660  -185.4400 c1         1 K90      -0.100100
     14 N01         66.3510    28.0770  -187.2190 nb         1 K90      -0.734000
     15 N02         68.3650    27.9860  -188.3160 nv         1 K90      -1.059900
     16 N11         61.1610    26.6890  -185.4390 n3         1 K90      -0.710600
     17 N14         58.3340    26.9950  -185.7010 n3         1 K90      -0.717600
     18 H1          62.7660    25.7100  -184.5590 h1         1 K90       0.050700
     19 H2          62.3070    27.1790  -183.7130 h1         1 K90       0.050700
     20 H3          61.2370    28.6710  -186.0890 h1         1 K90       0.040700
     21 H4          60.3570    28.4480  -184.5710 h1         1 K90       0.040700
     22 H5          59.4750    27.6140  -187.3790 h1         1 K90       0.038700
     23 H6          58.7980    28.9060  -186.3810 h1         1 K90       0.038700
     24 H7          58.2550    25.0160  -185.0580 h1         1 K90       0.038700
     25 H8          59.1440    25.2370  -186.5690 h1         1 K90       0.038700
     26 H9          60.0190    26.0690  -183.7600 h1         1 K90       0.040700
     27 H10         60.6960    24.7760  -184.7570 h1         1 K90       0.040700
     28 H11         56.6150    27.9240  -186.4360 h1         1 K90       0.030367
     29 H12         57.1640    26.5670  -187.4330 h1         1 K90       0.030367
     30 H13         56.3840    26.2700  -185.8710 h1         1 K90       0.030367
     31 H14         68.0670    30.6010  -188.6320 ha         1 K90       0.119000
     32 H15         64.3550    30.6880  -186.4820 ha         1 K90       0.127000
     33 H16         65.1830    32.6060  -188.2590 hc         1 K90       0.047367
     34 H17         66.1600    32.8430  -186.8220 hc         1 K90       0.047367
     35 H18         66.9410    32.7030  -188.3970 hc         1 K90       0.047367
     36 H19         68.2310    26.9900  -188.3710 hn         1 K90       0.473000
     37 H20         68.9390    28.3720  -189.0470 hn         1 K90       0.473000
     38 C07         66.1240    32.3280  -187.7830 c3         1 K90      -0.053800
@<TRIPOS>BOND
     1     1    13 1   
     2     1    16 1   
     3     1    18 1   
     4     1    19 1   
     5     2     3 1   
     6     2    16 1   
     7     2    20 1   
     8     2    21 1   
     9     3    17 1   
    10     3    22 1   
    11     3    23 1   
    12     4     5 1   
    13     4    17 1   
    14     4    24 1   
    15     4    25 1   
    16     5    16 1   
    17     5    26 1   
    18     5    27 1   
    19     6    17 1   
    20     6    28 1   
    21     6    29 1   
    22     6    30 1   
    23     7     8 ar  
    24     7    14 ar  
    25     7    15 1   
    26     8     9 ar  
    27     8    31 1   
    28     9    10 ar  
    29     9    38 1   
    30    10    11 ar  
    31    10    32 1   
    32    11    12 1   
    33    11    14 ar  
    34    12    13 3   
    35    15    36 1   
    36    15    37 1   
    37    33    38 1   
    38    34    38 1   
    39    35    38 1   
@<TRIPOS>SUBSTRUCTURE
     1 K90         1 TEMP              0 ****  ****    0 ROOT
