@<TRIPOS>MOLECULE
K91
   29    31     1     0     0
SMALL
No Charge or Current Charge


@<TRIPOS>ATOM
      1 C1          -2.5220     0.5590    -0.5660 ca         1 K91       0.169100
      2 C2          -3.6790    -0.1140    -0.9920 ca         1 K91      -0.146000
      3 C3          -4.3300    -1.0150    -0.1280 ca         1 K91      -0.068000
      4 C4          -3.8270    -1.2360     1.1650 ca         1 K91       0.086000
      5 C5          -2.6720    -0.5630     1.5980 ca         1 K91      -0.087000
      6 C6          -2.0140     0.3280     0.7320 ca         1 K91       0.014100
      7 O7          -0.8930     0.9880     1.1720 os         1 K91      -0.248200
      8 C8           0.3670     0.5160     0.8750 ca         1 K91       0.127100
      9 C9           0.8530    -0.6070     1.5650 ca         1 K91      -0.103000
     10 C10          2.1390    -1.0940     1.2900 ca         1 K91      -0.087000
     11 C11          2.9430    -0.4610     0.3300 ca         1 K91       0.130000
     12 C12          2.4620     0.6710    -0.3710 ca         1 K91      -0.068000
     13 C13          1.1580     1.1720    -0.1020 ca         1 K91       0.267000
     14 N14          0.6540     2.2480    -0.7680 nb         1 K91      -0.695000
     15 C15          1.4240     2.8660    -1.6930 ca         1 K91       0.375900
     16 C16          2.7190     2.4370    -2.0080 ca         1 K91      -0.163000
     17 C17          3.2510     1.3240    -1.3440 ca         1 K91      -0.043000
     18 Cl18         4.5530    -1.1260     0.0360 cl         1 K91      -0.186000
     19 O19         -1.9130     1.4370    -1.4180 oh         1 K91      -0.558100
     20 Cl20        -4.6460    -2.3550     2.2460 cl         1 K91      -0.205000
     21 H2          -4.0720     0.0620    -1.9900 ha         1 K91       0.133000
     22 H3          -5.2260    -1.5360    -0.4590 ha         1 K91       0.131000
     23 H5          -2.2910    -0.7310     2.6020 ha         1 K91       0.132000
     24 H9           0.2370    -1.0950     2.3150 ha         1 K91       0.138000
     25 H10          2.5160    -1.9620     1.8250 ha         1 K91       0.137000
     26 H15          0.9850     3.7260    -2.1970 h4         1 K91       0.029100
     27 H16          3.2970     2.9650    -2.7610 ha         1 K91       0.133000
     28 H17          4.2560     0.9880    -1.5900 ha         1 K91       0.136000
     29 HO19        -1.0520     1.7300    -1.0100 ho         1 K91       0.519000
@<TRIPOS>BOND
     1     1     2 ar  
     2     1     6 ar  
     3     1    19 1   
     4     2     3 ar  
     5     2    21 1   
     6     3     4 ar  
     7     3    22 1   
     8     4     5 ar  
     9     4    20 1   
    10     5     6 ar  
    11     5    23 1   
    12     6     7 1   
    13     7     8 1   
    14     8     9 ar  
    15     8    13 ar  
    16     9    10 ar  
    17     9    24 1   
    18    10    11 ar  
    19    10    25 1   
    20    11    12 ar  
    21    11    18 1   
    22    12    13 ar  
    23    12    17 ar  
    24    13    14 ar  
    25    14    15 ar  
    26    15    16 ar  
    27    15    26 1   
    28    16    17 ar  
    29    16    27 1   
    30    17    28 1   
    31    19    29 1   
@<TRIPOS>SUBSTRUCTURE
     1 K91         1 TEMP              0 ****  ****    0 ROOT
