@<TRIPOS>MOLECULE
K91
   29    31     1     0     0
SMALL
abcg2


@<TRIPOS>ATOM
      1 C1          -2.6200     1.0340    -0.3020 ca         1 K91       0.169100
      2 C2          -3.7620     0.4390    -0.8320 ca         1 K91      -0.146000
      3 C3          -4.2000    -0.7980    -0.3870 ca         1 K91      -0.068000
      4 C4          -3.4850    -1.4580     0.5990 ca         1 K91       0.086000
      5 C5          -2.3540    -0.8870     1.1590 ca         1 K91      -0.087000
      6 C6          -1.9360     0.3570     0.7160 ca         1 K91       0.014100
      7 O7          -0.8740     0.9910     1.3230 os         1 K91      -0.248200
      8 C8           0.3840     0.5170     1.0850 ca         1 K91       0.127100
      9 C9           0.9860    -0.3400     1.9610 ca         1 K91      -0.103000
     10 C10          2.3030    -0.7820     1.7380 ca         1 K91      -0.087000
     11 C11          2.9930    -0.3550     0.6410 ca         1 K91       0.130000
     12 C12          2.4120     0.5430    -0.2880 ca         1 K91      -0.068000
     13 C13          1.0860     0.9850    -0.0570 ca         1 K91       0.267000
     14 N14          0.4670     1.8520    -0.8870 nb         1 K91      -0.695000
     15 C15          1.1030     2.2920    -1.9420 ca         1 K91       0.375900
     16 C16          2.4180     1.9100    -2.2600 ca         1 K91      -0.163000
     17 C17          3.0690     1.0390    -1.4350 ca         1 K91      -0.043000
     18 CL18         4.6090    -0.9130     0.3890 cl         1 K91      -0.186000
     19 O19         -2.2240     2.2300    -0.7510 oh         1 K91      -0.558100
     20 CL20        -4.0150    -3.0140     1.1550 cl         1 K91      -0.205000
     21 H2          -4.3080     0.9530    -1.6130 ha         1 K91       0.133000
     22 H3          -5.0880    -1.2430    -0.8160 ha         1 K91       0.131000
     23 H5          -1.8140    -1.3930     1.9490 ha         1 K91       0.132000
     24 H9           0.4580    -0.6780     2.8430 ha         1 K91       0.138000
     25 H10          2.7600    -1.4610     2.4440 ha         1 K91       0.137000
     26 H15          0.5680     2.9820    -2.5820 h4         1 K91       0.029100
     27 H16          2.8940     2.3080    -3.1440 ha         1 K91       0.133000
     28 H17          4.0820     0.7320    -1.6570 ha         1 K91       0.136000
     29 HO19        -1.2350     2.2780    -0.6970 ho         1 K91       0.519000
@<TRIPOS>BOND
     1     1     2 ar  
     2     1     6 ar  
     3     1    19 1   
     4     2     3 ar  
     5     2    21 1   
     6     3     4 ar  
     7     3    22 1   
     8     4     5 ar  
     9     4    20 1   
    10     5     6 ar  
    11     5    23 1   
    12     6     7 1   
    13     7     8 1   
    14     8     9 ar  
    15     8    13 ar  
    16     9    10 ar  
    17     9    24 1   
    18    10    11 ar  
    19    10    25 1   
    20    11    12 ar  
    21    11    18 1   
    22    12    13 ar  
    23    12    17 ar  
    24    13    14 ar  
    25    14    15 ar  
    26    15    16 ar  
    27    15    26 1   
    28    16    17 ar  
    29    16    27 1   
    30    17    28 1   
    31    19    29 1   
@<TRIPOS>SUBSTRUCTURE
     1 K91         1 TEMP              0 ****  ****    0 ROOT
