@<TRIPOS>MOLECULE
K92
   39    41     1     0     0
SMALL
abcg2


@<TRIPOS>ATOM
      1 C13         22.5400   -21.8430    -4.1870 cc         1 K92       0.256900
      2 C15         24.0990   -22.9560    -5.0960 cd         1 K92       0.411400
      3 C17         24.3000   -21.8850    -7.3300 c3         1 K92       0.069600
      4 C01         20.6180   -23.6900    -9.8070 ca         1 K92      -0.105000
      5 C02         20.5400   -23.8160    -8.4250 ca         1 K92      -0.113000
      6 C03         20.7360   -22.7120    -7.6100 ca         1 K92      -0.097000
      7 C04         21.0190   -21.4620    -8.1650 ca         1 K92      -0.028000
      8 C05         21.0870   -21.3440    -9.5540 ca         1 K92      -0.097000
      9 C06         20.8890   -22.4500   -10.3680 ca         1 K92      -0.113000
     10 C07         21.2420   -20.2840    -7.3130 cc         1 K92      -0.054000
     11 C08         20.7270   -18.9940    -7.6210 cc         1 K92      -0.087000
     12 C09         21.0050   -18.0550    -6.6710 cd         1 K92      -0.343900
     13 C11         21.9380   -20.2840    -6.1260 cd         1 K92      -0.116000
     14 C12         22.6640   -21.3510    -5.4620 cd         1 K92      -0.170000
     15 C18         25.0980   -20.5920    -7.3940 c3         1 K92       0.132800
     16 N14         23.4340   -22.8440    -3.9730 nc         1 K92      -0.676000
     17 N16         23.6770   -22.0850    -6.0340 na         1 K92      -0.145500
     18 N19         26.1390   -20.5750    -6.3820 n8         1 K92      -1.001200
     19 N21         20.3880   -16.0900    -7.8620 nv         1 K92      -1.025200
     20 N22         20.3370   -15.9790    -5.5670 n2         1 K92      -0.842100
     21 S10         21.9430   -18.7250    -5.3980 ss         1 K92       0.255000
     22 H131        21.8320   -21.5280    -3.4340 h4         1 K92       0.042100
     23 H151        24.9000   -23.6540    -5.2900 h5         1 K92       0.061100
     24 H171        23.5380   -21.9030    -8.1090 h1         1 K92       0.072700
     25 H172        24.9620   -22.7340    -7.4960 h1         1 K92       0.072700
     26 H011        20.4660   -24.5530   -10.4420 ha         1 K92       0.115000
     27 H021        20.3160   -24.7770    -7.9800 ha         1 K92       0.116000
     28 H031        20.6540   -22.8200    -6.5360 ha         1 K92       0.119500
     29 H051        21.3140   -20.3850   -10.0030 ha         1 K92       0.119500
     30 H061        20.9500   -22.3410   -11.4430 ha         1 K92       0.116000
     31 H081        20.1220   -18.7890    -8.4930 ha         1 K92       0.146000
     32 H181        25.5650   -20.5570    -8.3800 h1         1 K92       0.041200
     33 H182        24.4120   -19.7360    -7.3480 h1         1 K92       0.041200
     34 H1          26.7670   -19.8020    -6.5590 hn         1 K92       0.402000
     35 H191        25.7350   -20.3910    -5.4720 hn         1 K92       0.402000
     36 H211        20.1940   -15.1010    -7.8750 hn         1 K92       0.469500
     37 H2          20.9730   -16.4050    -8.6190 hn         1 K92       0.469500
     38 H221        20.4020   -16.5620    -4.7400 hn         1 K92       0.391400
     39 C20         20.5730   -16.6440    -6.6320 cf         1 K92       0.692800
@<TRIPOS>BOND
     1     1    14 2   
     2     1    16 1   
     3     1    22 1   
     4     2    16 2   
     5     2    17 1   
     6     2    23 1   
     7     3    15 1   
     8     3    17 1   
     9     3    24 1   
    10     3    25 1   
    11     4     5 ar  
    12     4     9 ar  
    13     4    26 1   
    14     5     6 ar  
    15     5    27 1   
    16     6     7 ar  
    17     6    28 1   
    18     7     8 ar  
    19     7    10 1   
    20     8     9 ar  
    21     8    29 1   
    22     9    30 1   
    23    10    11 1   
    24    10    13 2   
    25    11    12 2   
    26    11    31 1   
    27    12    21 1   
    28    12    39 1   
    29    13    14 1   
    30    13    21 1   
    31    14    17 1   
    32    15    18 1   
    33    15    32 1   
    34    15    33 1   
    35    18    34 1   
    36    18    35 1   
    37    19    36 1   
    38    19    37 1   
    39    19    39 1   
    40    20    38 1   
    41    20    39 2   
@<TRIPOS>SUBSTRUCTURE
     1 K92         1 TEMP              0 ****  ****    0 ROOT
