@<TRIPOS>MOLECULE
K92
   39    41     1     0     0
SMALL
No Charge or Current Charge


@<TRIPOS>ATOM
      1 C13         22.7710   -21.4910    -3.9990 cc         1 K92       0.256900
      2 C15         24.0360   -22.9880    -4.8880 cd         1 K92       0.411400
      3 C17         24.0880   -22.2540    -7.3010 c3         1 K92       0.069600
      4 C01         20.9420   -23.5990    -9.8930 ca         1 K92      -0.105000
      5 C02         20.7860   -23.7910    -8.5110 ca         1 K92      -0.113000
      6 C03         20.8960   -22.7000    -7.6320 ca         1 K92      -0.097000
      7 C04         21.1820   -21.4040    -8.1210 ca         1 K92      -0.028000
      8 C05         21.2960   -21.2200    -9.5160 ca         1 K92      -0.097000
      9 C06         21.1900   -22.3120   -10.3950 ca         1 K92      -0.113000
     10 C07         21.2470   -20.2520    -7.2110 cc         1 K92      -0.054000
     11 C08         20.8630   -18.9240    -7.5490 cc         1 K92      -0.087000
     12 C09         20.9240   -18.0220    -6.5090 cd         1 K92      -0.343900
     13 C11         21.7530   -20.3230    -5.9230 cd         1 K92      -0.116000
     14 C12         22.6080   -21.3520    -5.3520 cd         1 K92      -0.170000
     15 C18         24.6790   -20.8910    -7.7410 c3         1 K92       0.132800
     16 N14         23.6250   -22.5170    -3.7140 nc         1 K92      -0.676000
     17 N16         23.4890   -22.2640    -5.9420 na         1 K92      -0.145500
     18 N19         25.8110   -20.4520    -6.8880 n8         1 K92      -1.001200
     19 N21         20.6740   -16.0070    -7.7060 nv         1 K92      -1.025200
     20 N22         20.1230   -16.0000    -5.5300 n2         1 K92      -0.842100
     21 S10         21.3440   -18.8600    -5.0040 ss         1 K92       0.255000
     22 H131        22.2990   -20.9370    -3.1970 h4         1 K92       0.042100
     23 H151        24.7680   -23.7710    -5.0470 h5         1 K92       0.061100
     24 H171        23.3650   -22.5990    -8.0430 h1         1 K92       0.072700
     25 H172        24.9000   -22.9920    -7.3200 h1         1 K92       0.072700
     26 H011        20.8570   -24.4440   -10.5740 ha         1 K92       0.115000
     27 H021        20.5740   -24.7840    -8.1200 ha         1 K92       0.116000
     28 H031        20.7440   -22.8620    -6.5680 ha         1 K92       0.119500
     29 H051        21.4940   -20.2320    -9.9250 ha         1 K92       0.119500
     30 H061        21.2990   -22.1590   -11.4660 ha         1 K92       0.116000
     31 H081        20.5060   -18.6680    -8.5430 ha         1 K92       0.146000
     32 H181        25.0390   -20.9790    -8.7750 h1         1 K92       0.041200
     33 H182        23.8980   -20.1190    -7.7210 h1         1 K92       0.041200
     34 H1          26.1190   -19.5200    -7.1920 hn         1 K92       0.402000
     35 H191        25.4580   -20.2880    -5.9370 hn         1 K92       0.402000
     36 H211        20.5990   -14.9990    -7.7110 hn         1 K92       0.469500
     37 H2          21.2590   -16.4250    -8.4170 hn         1 K92       0.469500
     38 H221        20.0080   -16.6870    -4.7770 hn         1 K92       0.391400
     39 C20         20.5840   -16.6110    -6.5380 cf         1 K92       0.692800
@<TRIPOS>BOND
     1     1    14 2   
     2     1    16 1   
     3     1    22 1   
     4     2    16 2   
     5     2    17 1   
     6     2    23 1   
     7     3    15 1   
     8     3    17 1   
     9     3    24 1   
    10     3    25 1   
    11     4     5 ar  
    12     4     9 ar  
    13     4    26 1   
    14     5     6 ar  
    15     5    27 1   
    16     6     7 ar  
    17     6    28 1   
    18     7     8 ar  
    19     7    10 1   
    20     8     9 ar  
    21     8    29 1   
    22     9    30 1   
    23    10    11 1   
    24    10    13 2   
    25    11    12 2   
    26    11    31 1   
    27    12    21 1   
    28    12    39 1   
    29    13    14 1   
    30    13    21 1   
    31    14    17 1   
    32    15    18 1   
    33    15    32 1   
    34    15    33 1   
    35    18    34 1   
    36    18    35 1   
    37    19    36 1   
    38    19    37 1   
    39    19    39 1   
    40    20    38 1   
    41    20    39 2   
@<TRIPOS>SUBSTRUCTURE
     1 K92         1 TEMP              0 ****  ****    0 ROOT
