@<TRIPOS>MOLECULE
K94
   24    23     1     0     0
SMALL
abcg2


@<TRIPOS>ATOM
      1 O1          -3.3400     0.2640    -1.0930 o          1 K94      -0.729000
      2 C2          -2.7100     0.4740    -0.0390 c          1 K94       0.725000
      3 O2          -2.9070     1.4010     0.7720 o          1 K94      -0.729000
      4 C1          -1.5260    -0.4730     0.2770 c3         1 K94       0.023500
      5 N1          -1.7410    -1.7610    -0.3580 n8         1 K94      -0.987200
      6 C3          -0.2390     0.2860    -0.1050 c3         1 K94      -0.102400
      7 C4           1.1300    -0.3190     0.2850 c3         1 K94      -0.095000
      8 C6           1.1340    -0.7650     1.7500 c3         1 K94      -0.082600
      9 C5           1.5520    -1.4820    -0.6220 c3         1 K94      -0.082600
     10 C7           2.1370     0.8180     0.1570 c3         1 K94       0.166300
     11 F2           3.4000     0.4180     0.4930 f          1 K94      -0.140500
     12 F1           2.2250     1.2600    -1.1330 f          1 K94      -0.140500
     13 H2          -1.5210    -0.6300     1.3600 h1         1 K94       0.043700
     14 H3          -1.8530    -1.6270    -1.3550 hn         1 K94       0.375500
     15 H4          -0.9450    -2.3680    -0.2290 hn         1 K94       0.375500
     16 H6          -0.2550     0.4640    -1.1850 hc         1 K94       0.054200
     17 H7          -0.3170     1.2710     0.3690 hc         1 K94       0.054200
     18 H8           2.1140    -1.1310     2.0570 hc         1 K94       0.035867
     19 H9           0.8500     0.0490     2.4200 hc         1 K94       0.035867
     20 H10          0.4260    -1.5770     1.9070 hc         1 K94       0.035867
     21 H11          1.4200    -1.2460    -1.6780 hc         1 K94       0.035867
     22 H12          2.5950    -1.7580    -0.4610 hc         1 K94       0.035867
     23 H13          0.9660    -2.3740    -0.4120 hc         1 K94       0.035867
     24 H14          1.8810     1.6730     0.7900 h2         1 K94       0.056700
@<TRIPOS>BOND
     1     1     2 1   
     2     2     3 1   
     3     2     4 1   
     4     4     5 1   
     5     4     6 1   
     6     4    13 1   
     7     5    14 1   
     8     5    15 1   
     9     6     7 1   
    10     6    16 1   
    11     6    17 1   
    12     7     8 1   
    13     7     9 1   
    14     7    10 1   
    15     8    18 1   
    16     8    19 1   
    17     8    20 1   
    18     9    21 1   
    19     9    22 1   
    20     9    23 1   
    21    10    11 1   
    22    10    12 1   
    23    10    24 1   
@<TRIPOS>SUBSTRUCTURE
     1 K94         1 TEMP              0 ****  ****    0 ROOT
