@<TRIPOS>MOLECULE
K94
   24    23     1     0     0
SMALL
No Charge or Current Charge


@<TRIPOS>ATOM
      1 O1          -3.1780     1.0170    -0.7180 o          1 K94      -0.729000
      2 C2          -2.7940     0.4070     0.2730 c          1 K94       0.725000
      3 O2          -3.3720     0.4560     1.3520 o          1 K94      -0.729000
      4 C1          -1.5380    -0.5560     0.1330 c3         1 K94       0.023500
      5 N1          -1.6800    -1.6770    -0.8640 n8         1 K94      -0.987200
      6 C3          -0.2420     0.2700    -0.1530 c3         1 K94      -0.102400
      7 C4           1.1450    -0.3000     0.3260 c3         1 K94      -0.095000
      8 C6           1.1540    -0.4360     1.8780 c3         1 K94      -0.082600
      9 C5           1.4490    -1.6920    -0.3040 c3         1 K94      -0.082600
     10 C7           2.2560     0.7270    -0.0880 c3         1 K94       0.166300
     11 F2           3.4810     0.3300     0.3350 f          1 K94      -0.140500
     12 F1           2.3290     0.8530    -1.4350 f          1 K94      -0.140500
     13 H2          -1.4270    -1.0270     1.1170 h1         1 K94       0.043700
     14 H3          -1.8850    -1.2710    -1.7850 hn         1 K94       0.375500
     15 H4          -0.7640    -2.1220    -0.9870 hn         1 K94       0.375500
     16 H6          -0.2030     0.4820    -1.2290 hc         1 K94       0.054200
     17 H7          -0.3690     1.2510     0.3230 hc         1 K94       0.054200
     18 H8           2.1370    -0.7610     2.2420 hc         1 K94       0.035867
     19 H9           0.9200     0.5230     2.3570 hc         1 K94       0.035867
     20 H10          0.4260    -1.1760     2.2260 hc         1 K94       0.035867
     21 H11          1.3550    -1.6620    -1.3960 hc         1 K94       0.035867
     22 H12          2.4660    -2.0210    -0.0630 hc         1 K94       0.035867
     23 H13          0.7680    -2.4600     0.0800 hc         1 K94       0.035867
     24 H14          2.0410     1.7110     0.3460 h2         1 K94       0.056700
@<TRIPOS>BOND
     1     1     2 1   
     2     2     3 1   
     3     2     4 1   
     4     4     5 1   
     5     4     6 1   
     6     4    13 1   
     7     5    14 1   
     8     5    15 1   
     9     6     7 1   
    10     6    16 1   
    11     6    17 1   
    12     7     8 1   
    13     7     9 1   
    14     7    10 1   
    15     8    18 1   
    16     8    19 1   
    17     8    20 1   
    18     9    21 1   
    19     9    22 1   
    20     9    23 1   
    21    10    11 1   
    22    10    12 1   
    23    10    24 1   
@<TRIPOS>SUBSTRUCTURE
     1 K94         1 TEMP              0 ****  ****    0 ROOT
