@<TRIPOS>MOLECULE
K95
   93    97     1     0     0
SMALL
abcg2


@<TRIPOS>ATOM
      1 CBH          5.4390     0.0240     0.0040 c          1 K95       0.610100
      2 CAX          6.1690     0.3690     1.2920 c3         1 K95      -0.114100
      3 CBL          7.0210     1.5960     1.1730 ca         1 K95      -0.068300
      4 CAR          6.6830     2.7690     1.8380 ca         1 K95      -0.095000
      5 CAL          7.4720     3.9080     1.7240 ca         1 K95      -0.110000
      6 CAJ          8.6150     3.8830     0.9390 ca         1 K95      -0.106000
      7 CAM          8.9670     2.7130     0.2760 ca         1 K95      -0.110000
      8 CAS          8.1750     1.5800     0.3930 ca         1 K95      -0.095000
      9 OAD          5.3640     0.7880    -0.9420 o          1 K95      -0.589100
     10 N            4.8790    -1.2040     0.0180 ns         1 K95      -0.499900
     11 CA           4.0010    -1.7010    -1.0100 c3         1 K95       0.048700
     12 CB           4.3640    -3.1270    -1.4080 c3         1 K95       0.043600
     13 SBF          6.0800    -3.1750    -1.9940 ss         1 K95      -0.407000
     14 CAA          6.1060    -4.8500    -2.6670 c3         1 K95       0.032900
     15 C            2.5630    -1.6720    -0.4870 c          1 K95       0.583100
     16 O            2.2790    -2.2000     0.5760 o          1 K95      -0.614100
     17 CBK         -2.0770    -1.3720    -1.3960 c          1 K95       0.580100
     18 NBD          1.6830    -1.0430    -1.2780 ns         1 K95      -0.484900
     19 OAG         -2.8530    -0.6570    -2.0150 o          1 K95      -0.608100
     20 CBR         -0.6360    -1.5100    -1.8830 c3         1 K95       0.091300
     21 CBM          0.9090     1.3490     0.2430 ca         1 K95      -0.086300
     22 CBB          0.0610     0.7250    -0.8290 c3         1 K95      -0.052100
     23 CAK          2.5120     2.4080     2.2780 ca         1 K95      -0.117000
     24 CBS          0.3120    -0.7870    -0.9080 c3         1 K95       0.086700
     25 OAI         -0.5220    -1.0090    -3.1790 oh         1 K95      -0.652000
     26 CAU          0.4600     1.3730     1.5630 ca         1 K95      -0.100000
     27 CAT          2.1710     1.8600    -0.0400 ca         1 K95      -0.100000
     28 CAO          1.2530     1.8980     2.5740 ca         1 K95      -0.113000
     29 CAN          2.9680     2.3860     0.9680 ca         1 K95      -0.113000
     30 CBJ         -4.0100    -0.3090     0.5620 c          1 K95       0.613100
     31 NBV         -2.4330    -1.9980    -0.2600 n          1 K95      -0.386800
     32 OAF         -3.1130     0.4320     0.9220 o          1 K95      -0.598100
     33 CBU         -3.7740    -1.7880     0.2530 c5         1 K95       0.025700
     34 CBW         -3.9460    -2.6670     1.5180 c5         1 K95       0.104000
     35 CAZ         -1.6770    -3.0540     0.3900 c5         1 K95       0.237000
     36 CAC         -5.3930    -3.0960     1.7100 c3         1 K95      -0.085600
     37 CAB         -3.4090    -2.0250     2.7930 c3         1 K95      -0.085600
     38 SBG         -2.9350    -4.1380     1.0940 ss         1 K95      -0.424000
     39 NBE         -5.2970     0.0530     0.4580 ns         1 K95      -0.479900
     40 OAH         -7.9100     0.3720     0.9670 oh         1 K95      -0.662000
     41 CBT         -5.7780     1.3800     0.7200 c5         1 K95       0.160000
     42 CBO         -6.0870     2.1990    -0.5090 ca         1 K95      -0.112300
     43 CAW         -5.4400     2.2110    -1.7310 ca         1 K95      -0.075000
     44 CAQ         -5.9040     3.0750    -2.7190 ca         1 K95      -0.111000
     45 CBP         -7.1120     1.4090     1.4890 c5         1 K95       0.155300
     46 CBN         -7.1780     3.0240    -0.2580 ca         1 K95      -0.079300
     47 CAV         -7.6370     3.8870    -1.2390 ca         1 K95      -0.098000
     48 CAP         -6.9910     3.9070    -2.4730 ca         1 K95      -0.106000
     49 CBA         -7.6800     2.7950     1.1420 c5         1 K95      -0.065100
     50 HAX          5.4130     0.5060     2.0710 hc         1 K95       0.068700
     51 HAXA         6.7680    -0.4900     1.6070 hc         1 K95       0.068700
     52 HAR          5.7960     2.7940     2.4620 ha         1 K95       0.111500
     53 HAL          7.1920     4.8110     2.2510 ha         1 K95       0.111500
     54 HAJ          9.2320     4.7680     0.8460 ha         1 K95       0.111000
     55 HAM          9.8610     2.6840    -0.3340 ha         1 K95       0.111500
     56 HAS          8.4630     0.6720    -0.1240 ha         1 K95       0.111500
     57 HN           4.9550    -1.7560     0.8580 hn         1 K95       0.326500
     58 HA           4.1070    -1.0510    -1.8790 h1         1 K95       0.100700
     59 HB           4.2390    -3.8080    -0.5650 h1         1 K95       0.071200
     60 HBA          3.7010    -3.4570    -2.2110 h1         1 K95       0.071200
     61 HAA          7.1010    -5.0220    -3.0740 h1         1 K95       0.060700
     62 HAAA         5.9160    -5.5890    -1.8910 h1         1 K95       0.060700
     63 HAAB         5.3770    -4.9680    -3.4670 h1         1 K95       0.060700
     64 HNBD         2.0180    -0.6150    -2.1280 hn         1 K95       0.329500
     65 HBR         -0.3460    -2.5670    -1.9030 h1         1 K95       0.081700
     66 HBB         -0.9930     0.9020    -0.6070 hc         1 K95       0.069200
     67 HBBA         0.2720     1.1840    -1.7980 hc         1 K95       0.069200
     68 HAK          3.1290     2.8220     3.0660 ha         1 K95       0.106000
     69 HBS          0.1770    -1.2080     0.0890 h1         1 K95       0.089700
     70 HOAI        -1.2660    -0.4070    -3.3240 ho         1 K95       0.475000
     71 HAU         -0.5230     0.9790     1.7960 ha         1 K95       0.120500
     72 HAT          2.5410     1.8490    -1.0580 ha         1 K95       0.120500
     73 HAO          0.8870     1.9130     3.5920 ha         1 K95       0.116000
     74 HAN          3.9460     2.7800     0.7220 ha         1 K95       0.116000
     75 HBU         -4.4990    -2.1220    -0.4970 h1         1 K95       0.083700
     76 HAZ         -1.0240    -2.6650     1.1720 h2         1 K95       0.087700
     77 HAZA        -1.0760    -3.6220    -0.3160 h2         1 K95       0.087700
     78 HAC         -6.0180    -2.2320     1.9460 hc         1 K95       0.053200
     79 HACA        -5.7950    -3.5780     0.8180 hc         1 K95       0.053200
     80 HACB        -5.4780    -3.7940     2.5430 hc         1 K95       0.053200
     81 HAB         -3.4390    -2.7510     3.6050 hc         1 K95       0.053200
     82 HABA        -2.3830    -1.6710     2.6950 hc         1 K95       0.053200
     83 HABB        -4.0240    -1.1740     3.0920 hc         1 K95       0.053200
     84 HNBE        -5.9590    -0.6040     0.0760 hn         1 K95       0.333500
     85 HOAH        -8.7080     0.3020     1.4980 ho         1 K95       0.447000
     86 HBT         -5.0250     1.8970     1.3200 h1         1 K95       0.093700
     87 HAW         -4.6010     1.5520    -1.9210 ha         1 K95       0.135000
     88 HAQ         -5.4200     3.0960    -3.6870 ha         1 K95       0.115000
     89 HBP         -6.9540     1.2850     2.5650 h1         1 K95       0.044700
     90 HAV         -8.4910     4.5300    -1.0620 ha         1 K95       0.113000
     91 HAP         -7.3450     4.5710    -3.2520 ha         1 K95       0.112000
     92 HBAA        -7.2680     3.5460     1.8230 hc         1 K95       0.059700
     93 HBAB        -8.7670     2.8400     1.2390 hc         1 K95       0.059700
@<TRIPOS>BOND
     1     1     2 1   
     2     1     9 2   
     3     1    10 1   
     4     2     3 1   
     5     2    50 1   
     6     2    51 1   
     7     3     4 ar  
     8     3     8 ar  
     9     4     5 ar  
    10     4    52 1   
    11     5     6 ar  
    12     5    53 1   
    13     6     7 ar  
    14     6    54 1   
    15     7     8 ar  
    16     7    55 1   
    17     8    56 1   
    18    10    11 1   
    19    10    57 1   
    20    11    12 1   
    21    11    15 1   
    22    11    58 1   
    23    12    13 1   
    24    12    59 1   
    25    12    60 1   
    26    13    14 1   
    27    14    61 1   
    28    14    62 1   
    29    14    63 1   
    30    15    16 2   
    31    15    18 1   
    32    17    19 2   
    33    17    20 1   
    34    17    31 1   
    35    18    24 1   
    36    18    64 1   
    37    20    24 1   
    38    20    25 1   
    39    20    65 1   
    40    21    22 1   
    41    21    26 ar  
    42    21    27 ar  
    43    22    24 1   
    44    22    66 1   
    45    22    67 1   
    46    23    28 ar  
    47    23    29 ar  
    48    23    68 1   
    49    24    69 1   
    50    25    70 1   
    51    26    28 ar  
    52    26    71 1   
    53    27    29 ar  
    54    27    72 1   
    55    28    73 1   
    56    29    74 1   
    57    30    32 2   
    58    30    33 1   
    59    30    39 1   
    60    31    33 1   
    61    31    35 1   
    62    33    34 1   
    63    33    75 1   
    64    34    36 1   
    65    34    37 1   
    66    34    38 1   
    67    35    38 1   
    68    35    76 1   
    69    35    77 1   
    70    36    78 1   
    71    36    79 1   
    72    36    80 1   
    73    37    81 1   
    74    37    82 1   
    75    37    83 1   
    76    39    41 1   
    77    39    84 1   
    78    40    45 1   
    79    40    85 1   
    80    41    42 1   
    81    41    45 1   
    82    41    86 1   
    83    42    43 ar  
    84    42    46 ar  
    85    43    44 ar  
    86    43    87 1   
    87    44    48 ar  
    88    44    88 1   
    89    45    49 1   
    90    45    89 1   
    91    46    47 ar  
    92    46    49 1   
    93    47    48 ar  
    94    47    90 1   
    95    48    91 1   
    96    49    92 1   
    97    49    93 1   
@<TRIPOS>SUBSTRUCTURE
     1 K95         1 TEMP              0 ****  ****    0 ROOT
