@<TRIPOS>MOLECULE
K95
   93    97     1     0     0
SMALL
No Charge or Current Charge


@<TRIPOS>ATOM
      1 CBH          6.3310    -0.4290    -0.6020 c          1 K95       0.610100
      2 CAX          7.3210    -0.2610     0.5540 c3         1 K95      -0.114100
      3 CBL          6.9880     0.9830     1.3710 ca         1 K95      -0.068300
      4 CAR          6.2210     0.8790     2.5480 ca         1 K95      -0.095000
      5 CAL          5.9200     2.0270     3.3010 ca         1 K95      -0.110000
      6 CAJ          6.3790     3.2860     2.8800 ca         1 K95      -0.106000
      7 CAM          7.1380     3.3970     1.7030 ca         1 K95      -0.110000
      8 CAS          7.4430     2.2490     0.9520 ca         1 K95      -0.095000
      9 OAD          6.4210     0.2070    -1.6430 o          1 K95      -0.589100
     10 N            5.3110    -1.3250    -0.3680 ns         1 K95      -0.499900
     11 CA           4.2230    -1.6430    -1.3240 c3         1 K95       0.048700
     12 CB           4.3810    -3.0690    -1.9010 c3         1 K95       0.043600
     13 SBF          5.9580    -3.2580    -2.8580 ss         1 K95      -0.407000
     14 CAA          5.8190    -5.0340    -3.3550 c3         1 K95       0.032900
     15 C            2.8450    -1.4910    -0.6300 c          1 K95       0.583100
     16 O            2.6890    -1.6050     0.5800 o          1 K95      -0.614100
     17 CBK         -2.0600    -1.4810    -1.2970 c          1 K95       0.580100
     18 NBD          1.7970    -1.2050    -1.4800 ns         1 K95      -0.484900
     19 OAG         -2.9230    -0.9570    -1.9940 o          1 K95      -0.608100
     20 CBR         -0.6130    -1.6760    -1.8560 c3         1 K95       0.091300
     21 CBM          1.1560     1.4460    -0.1840 ca         1 K95      -0.086300
     22 CBB          0.2330     0.6860    -1.1310 c3         1 K95      -0.052100
     23 CAK          2.8610     2.8240     1.5880 ca         1 K95      -0.117000
     24 CBS          0.4370    -0.8510    -1.0540 c3         1 K95       0.086700
     25 OAI         -0.5360    -1.3460    -3.2700 oh         1 K95      -0.652000
     26 CAU          0.7580     1.6810     1.1470 ca         1 K95      -0.100000
     27 CAT          2.4150     1.9050    -0.6210 ca         1 K95      -0.100000
     28 CAO          1.6070     2.3700     2.0290 ca         1 K95      -0.113000
     29 CAN          3.2670     2.5880     0.2640 ca         1 K95      -0.113000
     30 CBJ         -3.9150     0.0680     0.7020 c          1 K95       0.613100
     31 NBV         -2.3390    -1.8490     0.0390 n          1 K95      -0.386800
     32 OAF         -3.0750     0.9600     0.7070 o          1 K95      -0.598100
     33 CBU         -3.6490    -1.4710     0.6720 c5         1 K95       0.025700
     34 CBW         -3.5820    -2.0230     2.1430 c5         1 K95       0.104000
     35 CAZ         -1.6280    -2.9780     0.6900 c5         1 K95       0.237000
     36 CAC         -4.9760    -2.2300     2.7850 c3         1 K95      -0.085600
     37 CAB         -2.6920    -1.2070     3.1230 c3         1 K95      -0.085600
     38 SBG         -2.8290    -3.6860     1.9030 ss         1 K95      -0.424000
     39 NBE         -5.2750     0.2990     0.6930 ns         1 K95      -0.479900
     40 OAH         -7.8490     0.3380     1.2830 oh         1 K95      -0.662000
     41 CBT         -5.7580     1.6810     0.7200 c5         1 K95       0.160000
     42 CBO         -6.1240     2.2490    -0.6280 ca         1 K95      -0.112300
     43 CAW         -5.3370     2.2360    -1.7930 ca         1 K95      -0.075000
     44 CAQ         -5.8460     2.8290    -2.9650 ca         1 K95      -0.111000
     45 CBP         -7.1940     1.6140     1.4260 c5         1 K95       0.155300
     46 CBN         -7.3740     2.8340    -0.6230 ca         1 K95      -0.079300
     47 CAV         -7.8950     3.4340    -1.7800 ca         1 K95      -0.098000
     48 CAP         -7.1230     3.4270    -2.9590 ca         1 K95      -0.106000
     49 CBA         -8.0400     2.7500     0.7260 c5         1 K95      -0.065100
     50 HAX          7.2790    -1.1410     1.2060 hc         1 K95       0.068700
     51 HAXA         8.3310    -0.1660     0.1390 hc         1 K95       0.068700
     52 HAR          5.8580    -0.0900     2.8820 ha         1 K95       0.111500
     53 HAL          5.3280     1.9400     4.2100 ha         1 K95       0.111500
     54 HAJ          6.1440     4.1750     3.4620 ha         1 K95       0.111000
     55 HAM          7.4920     4.3720     1.3740 ha         1 K95       0.111500
     56 HAS          8.0320     2.3440     0.0420 ha         1 K95       0.111500
     57 HN           5.2880    -1.7630     0.5460 hn         1 K95       0.326500
     58 HA           4.2440    -0.9240    -2.1530 h1         1 K95       0.100700
     59 HB           4.3680    -3.8010    -1.0820 h1         1 K95       0.071200
     60 HBA          3.5380    -3.2910    -2.5690 h1         1 K95       0.071200
     61 HAA          6.6970    -5.3230    -3.9470 h1         1 K95       0.060700
     62 HAAA         5.7650    -5.6690    -2.4610 h1         1 K95       0.060700
     63 HAAB         4.9150    -5.1830    -3.9590 h1         1 K95       0.060700
     64 HNBD         2.0020    -1.1560    -2.4720 hn         1 K95       0.329500
     65 HBR         -0.3710    -2.7380    -1.7240 h1         1 K95       0.081700
     66 HBB         -0.8090     0.9300    -0.8920 hc         1 K95       0.069200
     67 HBBA         0.3900     1.0240    -2.1620 hc         1 K95       0.069200
     68 HAK          3.5170     3.3580     2.2710 ha         1 K95       0.106000
     69 HBS          0.3310    -1.1280     0.0030 h1         1 K95       0.089700
     70 HOAI        -1.4280    -1.0000    -3.5160 ho         1 K95       0.475000
     71 HAU         -0.2100     1.3300     1.4970 ha         1 K95       0.120500
     72 HAT          2.7370     1.7270    -1.6450 ha         1 K95       0.120500
     73 HAO          1.2940     2.5510     3.0550 ha         1 K95       0.116000
     74 HAN          4.2420     2.9340    -0.0750 ha         1 K95       0.116000
     75 HBU         -4.4660    -1.9520     0.1170 h1         1 K95       0.083700
     76 HAZ         -0.7540    -2.5680     1.2110 h2         1 K95       0.087700
     77 HAZA        -1.3640    -3.7260    -0.0670 h2         1 K95       0.087700
     78 HAC         -5.4760    -1.2750     2.9840 hc         1 K95       0.053200
     79 HACA        -5.6300    -2.8220     2.1350 hc         1 K95       0.053200
     80 HACB        -4.8950    -2.7610     3.7410 hc         1 K95       0.053200
     81 HAB         -2.5450    -1.7490     4.0650 hc         1 K95       0.053200
     82 HABA        -1.7000    -1.0000     2.7050 hc         1 K95       0.053200
     83 HABB        -3.1490    -0.2420     3.3730 hc         1 K95       0.053200
     84 HNBE        -5.9100    -0.4910     0.6990 hn         1 K95       0.333500
     85 HOAH        -8.7330     0.4230     1.7050 ho         1 K95       0.447000
     86 HBT         -5.0930     2.3700     1.2610 h1         1 K95       0.093700
     87 HAW         -4.3510     1.7760    -1.7920 ha         1 K95       0.135000
     88 HAQ         -5.2510     2.8270    -3.8750 ha         1 K95       0.115000
     89 HBP         -7.0870     1.8320     2.4980 h1         1 K95       0.044700
     90 HAV         -8.8800     3.8960    -1.7680 ha         1 K95       0.113000
     91 HAP         -7.5130     3.8860    -3.8650 ha         1 K95       0.112000
     92 HBAA        -7.9510     3.6990     1.2680 hc         1 K95       0.059700
     93 HBAB        -9.1070     2.5090     0.6640 hc         1 K95       0.059700
@<TRIPOS>BOND
     1     1     2 1   
     2     1     9 2   
     3     1    10 1   
     4     2     3 1   
     5     2    50 1   
     6     2    51 1   
     7     3     4 ar  
     8     3     8 ar  
     9     4     5 ar  
    10     4    52 1   
    11     5     6 ar  
    12     5    53 1   
    13     6     7 ar  
    14     6    54 1   
    15     7     8 ar  
    16     7    55 1   
    17     8    56 1   
    18    10    11 1   
    19    10    57 1   
    20    11    12 1   
    21    11    15 1   
    22    11    58 1   
    23    12    13 1   
    24    12    59 1   
    25    12    60 1   
    26    13    14 1   
    27    14    61 1   
    28    14    62 1   
    29    14    63 1   
    30    15    16 2   
    31    15    18 1   
    32    17    19 2   
    33    17    20 1   
    34    17    31 1   
    35    18    24 1   
    36    18    64 1   
    37    20    24 1   
    38    20    25 1   
    39    20    65 1   
    40    21    22 1   
    41    21    26 ar  
    42    21    27 ar  
    43    22    24 1   
    44    22    66 1   
    45    22    67 1   
    46    23    28 ar  
    47    23    29 ar  
    48    23    68 1   
    49    24    69 1   
    50    25    70 1   
    51    26    28 ar  
    52    26    71 1   
    53    27    29 ar  
    54    27    72 1   
    55    28    73 1   
    56    29    74 1   
    57    30    32 2   
    58    30    33 1   
    59    30    39 1   
    60    31    33 1   
    61    31    35 1   
    62    33    34 1   
    63    33    75 1   
    64    34    36 1   
    65    34    37 1   
    66    34    38 1   
    67    35    38 1   
    68    35    76 1   
    69    35    77 1   
    70    36    78 1   
    71    36    79 1   
    72    36    80 1   
    73    37    81 1   
    74    37    82 1   
    75    37    83 1   
    76    39    41 1   
    77    39    84 1   
    78    40    45 1   
    79    40    85 1   
    80    41    42 1   
    81    41    45 1   
    82    41    86 1   
    83    42    43 ar  
    84    42    46 ar  
    85    43    44 ar  
    86    43    87 1   
    87    44    48 ar  
    88    44    88 1   
    89    45    49 1   
    90    45    89 1   
    91    46    47 ar  
    92    46    49 1   
    93    47    48 ar  
    94    47    90 1   
    95    48    91 1   
    96    49    92 1   
    97    49    93 1   
@<TRIPOS>SUBSTRUCTURE
     1 K95         1 TEMP              0 ****  ****    0 ROOT
