@<TRIPOS>MOLECULE
K97
   34    36     1     0     0
SMALL
No Charge or Current Charge


@<TRIPOS>ATOM
      1 O1          -5.4770    -0.1270    -0.4830 o          1 K97      -0.722500
      2 C2          -4.6830    -0.7370     0.2210 c          1 K97       0.710600
      3 C3          -3.2460    -0.2390     0.3020 ca         1 K97      -0.114600
      4 C4          -2.8360     0.9110    -0.4250 ca         1 K97      -0.113000
      5 C5          -1.5040     1.3380    -0.3230 ca         1 K97      -0.063200
      6 C6          -0.5990     0.6770     0.4550 ca         1 K97      -0.109800
      7 C7          -0.9530    -0.4620     1.1880 ca         1 K97      -0.120000
      8 C8          -2.2860    -0.9170     1.1070 ca         1 K97      -0.095000
      9 C9           0.6620     1.3560     0.3400 cc         1 K97      -0.165400
     10 C10          1.9580     0.9870     1.0240 c3         1 K97       0.253000
     11 N11          2.9230     0.3120     0.1260 n3         1 K97      -0.716600
     12 C12          4.2560     0.1020     0.7720 c6         1 K97       0.126800
     13 C13          5.2610    -0.6040    -0.1890 c6         1 K97       0.153100
     14 O14          4.7030    -1.8490    -0.6750 os         1 K97      -0.461000
     15 C15          3.4480    -1.6600    -1.3730 c6         1 K97       0.153100
     16 C16          2.4040    -0.9740    -0.4410 c6         1 K97       0.126800
     17 C17          0.4390     2.4210    -0.5290 cd         1 K97      -0.166100
     18 N18         -0.9130     2.4200    -0.9490 na         1 K97      -0.229700
     19 O19         -4.9970    -1.7310     0.8620 o          1 K97      -0.722500
     20 H1          -3.5370     1.4570    -1.0530 ha         1 K97       0.130000
     21 H2          -0.2250    -0.9860     1.8020 ha         1 K97       0.088000
     22 H3          -2.5740    -1.8010     1.6730 ha         1 K97       0.128000
     23 H4           2.4050     1.9110     1.4170 h1         1 K97       0.026200
     24 H5           1.7380     0.3480     1.8900 h1         1 K97       0.026200
     25 H6           4.6860     1.0650     1.0840 h1         1 K97       0.044200
     26 H7           5.4880     0.0500    -1.0430 h1         1 K97       0.043200
     27 H8           3.6190    -1.0400    -2.2650 h1         1 K97       0.043200
     28 H9           3.0690    -2.6380    -1.7030 h1         1 K97       0.043200
     29 H10          2.1450    -1.6720     0.3700 h1         1 K97       0.044200
     30 H11          1.4850    -0.8000    -1.0200 h1         1 K97       0.044200
     31 H12          1.1450     3.1700    -0.8770 h4         1 K97       0.193000
     32 H13         -1.3580     3.0770    -1.5830 hn         1 K97       0.338000
     33 H15          4.1490    -0.5110     1.6790 h1         1 K97       0.044200
     34 H16          6.2010    -0.8140     0.3410 h1         1 K97       0.043200
@<TRIPOS>BOND
     1     1     2 1   
     2     2     3 1   
     3     2    19 1   
     4     3     4 ar  
     5     3     8 ar  
     6     4     5 ar  
     7     4    20 1   
     8     5     6 ar  
     9     5    18 1   
    10     6     7 ar  
    11     6     9 1   
    12     7     8 ar  
    13     7    21 1   
    14     8    22 1   
    15     9    10 1   
    16     9    17 2   
    17    10    11 1   
    18    10    23 1   
    19    10    24 1   
    20    11    12 1   
    21    11    16 1   
    22    12    13 1   
    23    12    25 1   
    24    12    33 1   
    25    13    14 1   
    26    13    26 1   
    27    13    34 1   
    28    14    15 1   
    29    15    16 1   
    30    15    27 1   
    31    15    28 1   
    32    16    29 1   
    33    16    30 1   
    34    17    18 1   
    35    17    31 1   
    36    18    32 1   
@<TRIPOS>SUBSTRUCTURE
     1 K97         1 TEMP              0 ****  ****    0 ROOT
