@<TRIPOS>MOLECULE
K97
   34    36     1     0     0
SMALL
bcc


@<TRIPOS>ATOM
      1 O1          -5.3870    -0.1200    -0.5790 o          1 K97      -0.827800
      2 C2          -4.6040    -0.7680     0.1450 c          1 K97       0.921200
      3 C3          -3.1760    -0.2530     0.2490 ca         1 K97      -0.114600
      4 C4          -2.8000     0.8930    -0.4320 ca         1 K97      -0.131000
      5 C5          -1.4840     1.3320    -0.3130 ca         1 K97      -0.063200
      6 C6          -0.5280     0.6520     0.4710 ca         1 K97      -0.109800
      7 C7          -0.9240    -0.5060     1.1510 ca         1 K97      -0.138000
      8 C8          -2.2280    -0.9390     1.0350 ca         1 K97      -0.113000
      9 C9           0.7040     1.3730     0.3590 cc         1 K97      -0.165400
     10 C10          2.0150     1.0320     0.9860 c3         1 K97       0.253000
     11 N11          2.9130     0.3100     0.0950 n3         1 K97      -0.716600
     12 C12          4.2050     0.1040     0.7210 c6         1 K97       0.126800
     13 C13          5.1430    -0.6120    -0.2320 c6         1 K97       0.129900
     14 O14          4.6050    -1.8430    -0.6620 os         1 K97      -0.414600
     15 C15          3.3480    -1.6520    -1.2740 c6         1 K97       0.129900
     16 C16          2.3700    -0.9600    -0.3450 c6         1 K97       0.126800
     17 C17          0.4470     2.4320    -0.4690 cd         1 K97      -0.116100
     18 N18         -0.8560     2.4100    -0.8710 na         1 K97      -0.179400
     19 O19         -4.8780    -1.7990     0.7930 o          1 K97      -0.827800
     20 H1          -3.5160     1.4280    -1.0430 ha         1 K97       0.148000
     21 H2          -0.2180    -1.0560     1.7620 ha         1 K97       0.106000
     22 H3          -2.5410    -1.8340     1.5560 ha         1 K97       0.146000
     23 H4           2.5290     1.9490     1.2880 h1         1 K97       0.026200
     24 H5           1.8360     0.4640     1.9160 h1         1 K97       0.026200
     25 H6           4.6390     1.0720     0.9860 h1         1 K97       0.044200
     26 H7           5.3520     0.0370    -1.0950 h1         1 K97       0.043200
     27 H8           3.4550    -1.0600    -2.1940 h1         1 K97       0.043200
     28 H9           2.9660    -2.6360    -1.5520 h1         1 K97       0.043200
     29 H10          2.1390    -1.6240     0.5080 h1         1 K97       0.044200
     30 H11          1.4340    -0.7950    -0.8830 h1         1 K97       0.044200
     31 H12          1.1100     3.2150    -0.8030 h4         1 K97       0.143000
     32 H13         -1.2850     3.0940    -1.4720 hn         1 K97       0.287700
     33 H15          4.1200    -0.4760     1.6570 h1         1 K97       0.044200
     34 H16          6.0910    -0.8240     0.2640 h1         1 K97       0.043200
@<TRIPOS>BOND
     1     1     2 1   
     2     2     3 1   
     3     2    19 1   
     4     3     4 ar  
     5     3     8 ar  
     6     4     5 ar  
     7     4    20 1   
     8     5     6 ar  
     9     5    18 1   
    10     6     7 ar  
    11     6     9 1   
    12     7     8 ar  
    13     7    21 1   
    14     8    22 1   
    15     9    10 1   
    16     9    17 2   
    17    10    11 1   
    18    10    23 1   
    19    10    24 1   
    20    11    12 1   
    21    11    16 1   
    22    12    13 1   
    23    12    25 1   
    24    12    33 1   
    25    13    14 1   
    26    13    26 1   
    27    13    34 1   
    28    14    15 1   
    29    15    16 1   
    30    15    27 1   
    31    15    28 1   
    32    16    29 1   
    33    16    30 1   
    34    17    18 1   
    35    17    31 1   
    36    18    32 1   
@<TRIPOS>SUBSTRUCTURE
     1 K97         1 TEMP              0 ****  ****    0 ROOT
