@<TRIPOS>MOLECULE
K99
   32    32     1     0     0
SMALL
bcc


@<TRIPOS>ATOM
      1 O1A          0.3330    -2.6430    -0.6800 o          1 K99      -0.792800
      2 C1           1.3730    -2.0030    -0.4840 c          1 K99       0.912600
      3 O1B          2.4770    -2.1150    -1.0450 o          1 K99      -0.792800
      4 C2           1.3030    -0.9440     0.6610 c6         1 K99       0.214100
      5 C3           2.3940     0.1140     0.5930 c6         1 K99       0.105600
      6 F1           2.3710     0.8390     1.7840 f          1 K99      -0.259300
      7 C4           2.1160     1.0650    -0.5610 c6         1 K99       0.082100
      8 O4           3.0240     2.1400    -0.5890 oh         1 K99      -0.612800
      9 O6           0.0640    -0.3380     0.7750 os         1 K99      -0.431600
     10 C6          -0.2960     0.4930    -0.3160 c6         1 K99       0.143100
     11 C5           0.7070     1.6410    -0.4490 c6         1 K99       0.119100
     12 O5           0.3620     2.3670    -1.6020 oh         1 K99      -0.606800
     13 C7          -1.7190     0.9720    -0.0360 c3         1 K99       0.131100
     14 O7          -1.8040     1.6130     1.2140 oh         1 K99      -0.611800
     15 C8          -2.7360    -0.1740    -0.1910 c3         1 K99       0.112100
     16 O8          -2.7370    -0.6410    -1.5220 oh         1 K99      -0.551800
     17 C9          -4.1250     0.2570     0.2550 c3         1 K99       0.102400
     18 O9          -5.0090    -0.8260     0.0800 oh         1 K99      -0.581800
     19 F2           1.4490    -1.6430     1.8420 f          1 K99      -0.230300
     20 H3           3.3820    -0.3410     0.5030 h1         1 K99       0.085700
     21 H4           2.1700     0.4800    -1.4880 h1         1 K99       0.081700
     22 HA           3.8320     1.8520    -1.0240 ho         1 K99       0.404000
     23 H5           0.6490     2.2720     0.4490 h1         1 K99       0.060700
     24 H6          -0.2980    -0.0780    -1.2530 h1         1 K99       0.095700
     25 H7          -1.9680     1.7350    -0.7820 h1         1 K99       0.068700
     26 HB           0.9730     3.1060    -1.6850 ho         1 K99       0.408000
     27 HC          -1.5070     0.9980     1.8930 ho         1 K99       0.424000
     28 H8          -2.4190    -1.0270     0.4180 h1         1 K99       0.119700
     29 HD          -3.0810     0.0570    -2.0900 ho         1 K99       0.379000
     30 H91C        -4.0860     0.5790     1.3000 h1         1 K99       0.018200
     31 H92C        -4.4360     1.1340    -0.3350 h1         1 K99       0.018200
     32 H9          -5.8660    -0.5630     0.4280 ho         1 K99       0.386000
@<TRIPOS>BOND
     1     1     2 1   
     2     2     3 1   
     3     2     4 1   
     4     4     5 1   
     5     4     9 1   
     6     4    19 1   
     7     5     6 1   
     8     5     7 1   
     9     5    20 1   
    10     7     8 1   
    11     7    11 1   
    12     7    21 1   
    13     8    22 1   
    14     9    10 1   
    15    10    11 1   
    16    10    13 1   
    17    10    24 1   
    18    11    12 1   
    19    11    23 1   
    20    12    26 1   
    21    13    14 1   
    22    13    15 1   
    23    13    25 1   
    24    14    27 1   
    25    15    16 1   
    26    15    17 1   
    27    15    28 1   
    28    16    29 1   
    29    17    18 1   
    30    17    30 1   
    31    17    31 1   
    32    18    32 1   
@<TRIPOS>SUBSTRUCTURE
     1 K99         1 TEMP              0 ****  ****    0 ROOT
