@<TRIPOS>MOLECULE
K99
   32    32     1     0     0
SMALL
No Charge or Current Charge


@<TRIPOS>ATOM
      1 O1A          0.8700    -2.0830    -1.4300 o          1 K99      -0.687500
      2 C1           1.7300    -1.9990    -0.5610 c          1 K99       0.702000
      3 O1B          2.3960    -2.9950    -0.2930 o          1 K99      -0.687500
      4 C2           1.4990    -0.9430     0.6240 c6         1 K99       0.256000
      5 C3           2.5210     0.2300     0.4970 c6         1 K99       0.124300
      6 F1           2.5180     0.9960     1.6930 f          1 K99      -0.278000
      7 C4           2.1170     1.1730    -0.6790 c6         1 K99       0.105300
      8 O4           3.0180     2.2960    -0.8180 oh         1 K99      -0.675000
      9 O6           0.1370    -0.4100     0.7610 os         1 K99      -0.478000
     10 C6          -0.3220     0.4850    -0.3030 c6         1 K99       0.166300
     11 C5           0.6620     1.6900    -0.4630 c6         1 K99       0.142300
     12 O5           0.3030     2.5430    -1.5650 oh         1 K99      -0.729000
     13 C7          -1.7630     0.9420     0.1130 c3         1 K99       0.154300
     14 O7          -1.7680     1.2630     1.5210 oh         1 K99      -0.734000
     15 C8          -2.8600    -0.1300    -0.1830 c3         1 K99       0.135300
     16 O8          -2.9170    -0.4180    -1.5910 oh         1 K99      -0.614000
     17 C9          -4.2830     0.3110     0.2590 c3         1 K99       0.125600
     18 O9          -5.2560    -0.6590    -0.1710 oh         1 K99      -0.704000
     19 F2           1.7660    -1.5860     1.8610 f          1 K99      -0.249000
     20 H3           3.5360    -0.1670     0.3520 h1         1 K99       0.085700
     21 H4           2.1290     0.5770    -1.6050 h1         1 K99       0.081700
     22 HA           3.9350     1.9400    -0.8550 ho         1 K99       0.443000
     23 H5           0.6410     2.2720     0.4710 h1         1 K99       0.060700
     24 H6          -0.3870    -0.0480    -1.2600 h1         1 K99       0.095700
     25 H7          -2.0180     1.8350    -0.4750 h1         1 K99       0.068700
     26 HB           1.1300     3.0500    -1.7560 ho         1 K99       0.507000
     27 HC          -1.0630     0.6800     1.8990 ho         1 K99       0.523000
     28 H8          -2.6030    -1.0400     0.3780 h1         1 K99       0.119700
     29 HD          -3.8290    -0.7630    -1.7280 ho         1 K99       0.418000
     30 H91C        -4.3100     0.4120     1.3520 h1         1 K99       0.018200
     31 H92C        -4.5100     1.2950    -0.1730 h1         1 K99       0.018200
     32 H9          -6.1290    -0.3720     0.1890 ho         1 K99       0.485000
@<TRIPOS>BOND
     1     1     2 1   
     2     2     3 1   
     3     2     4 1   
     4     4     5 1   
     5     4     9 1   
     6     4    19 1   
     7     5     6 1   
     8     5     7 1   
     9     5    20 1   
    10     7     8 1   
    11     7    11 1   
    12     7    21 1   
    13     8    22 1   
    14     9    10 1   
    15    10    11 1   
    16    10    13 1   
    17    10    24 1   
    18    11    12 1   
    19    11    23 1   
    20    12    26 1   
    21    13    14 1   
    22    13    15 1   
    23    13    25 1   
    24    14    27 1   
    25    15    16 1   
    26    15    17 1   
    27    15    28 1   
    28    16    29 1   
    29    17    18 1   
    30    17    30 1   
    31    17    31 1   
    32    18    32 1   
@<TRIPOS>SUBSTRUCTURE
     1 K99         1 TEMP              0 ****  ****    0 ROOT
