@<TRIPOS>MOLECULE
K9A
   49    52     1     0     0
SMALL
bcc


@<TRIPOS>ATOM
      1 N7           7.9930     1.6860     0.1690 nv         1 K9A      -0.935500
      2 C17          6.7090     1.2480     0.1180 ca         1 K9A       0.922900
      3 N4           5.8080     1.9180     0.8340 nb         1 K9A      -0.796000
      4 C16          4.5530     1.4720     0.7430 ca         1 K9A       0.474200
      5 N5           6.4650     0.2090    -0.6830 nb         1 K9A      -0.848000
      6 C18          5.2090    -0.2090    -0.7740 ca         1 K9A       0.744200
      7 N6           4.9360    -1.2660    -1.5610 nv         1 K9A      -0.944500
      8 C15          4.1670     0.4120    -0.0410 ca         1 K9A      -0.264000
      9 N3           2.8540    -0.0910    -0.1670 nh         1 K9A      -0.621000
     10 C12          2.5410    -1.1610     0.7660 c6         1 K9A       0.172300
     11 C11          1.2480    -1.8520     0.3770 c6         1 K9A       0.198300
     12 C13          1.7850     0.8870    -0.1790 c6         1 K9A       0.172300
     13 C14          0.4910     0.2210    -0.6050 c6         1 K9A       0.198300
     14 N2           0.1610    -0.8980     0.2680 nh         1 K9A      -0.652000
     15 C9          -1.1380    -1.3950     0.2270 ca         1 K9A       0.166600
     16 C8          -1.4160    -2.7680     0.2840 ca         1 K9A      -0.188000
     17 C7          -2.7250    -3.2280     0.2840 ca         1 K9A      -0.094000
     18 C6          -3.7960    -2.3550     0.2110 ca         1 K9A      -0.154000
     19 C10         -2.2330    -0.5210     0.1500 ca         1 K9A      -0.167000
     20 C5          -3.5430    -0.9840     0.1400 cp         1 K9A       0.001000
     21 C3          -4.6580    -0.0260     0.0580 cp         1 K9A      -0.274600
     22 C2          -4.6460     1.2080     0.7000 ca         1 K9A       0.447700
     23 N           -5.6480     2.0700     0.6230 nb         1 K9A      -0.706000
     24 C4          -5.8160    -0.2880    -0.6690 ca         1 K9A       0.447700
     25 N1          -6.8250     0.5630    -0.7480 nb         1 K9A      -0.706000
     26 C1          -6.7070     1.7180    -0.1000 ca         1 K9A       0.661300
     27 C           -7.8290     2.6980    -0.2140 c3         1 K9A      -0.134400
     28 H1           8.2420     2.2910     0.9330 hn         1 K9A       0.428800
     29 H2           8.7110     1.0480    -0.1300 hn         1 K9A       0.428800
     30 H3           3.8160     2.0120     1.3300 h4         1 K9A       0.017100
     31 H4           3.9730    -1.4130    -1.8160 hn         1 K9A       0.436300
     32 H5           5.6330    -1.5600    -2.2240 hn         1 K9A       0.436300
     33 H6           3.3420    -1.9020     0.7570 h1         1 K9A       0.046700
     34 H7           2.4590    -0.7800     1.7960 h1         1 K9A       0.046700
     35 H8           1.3960    -2.4080    -0.5620 h1         1 K9A       0.044450
     36 H9           1.0210    -2.5800     1.1560 h1         1 K9A       0.044450
     37 H10          1.6360     1.3580     0.8050 h1         1 K9A       0.046700
     38 H11          2.0230     1.6770    -0.8920 h1         1 K9A       0.046700
     39 H12         -0.2940     0.9730    -0.5720 h1         1 K9A       0.044450
     40 H13          0.5820    -0.1150    -1.6470 h1         1 K9A       0.044450
     41 H14         -0.6200    -3.4970     0.3140 ha         1 K9A       0.132000
     42 H15         -2.9040    -4.2950     0.3360 ha         1 K9A       0.131000
     43 H16         -4.8110    -2.7310     0.2280 ha         1 K9A       0.135000
     44 H17         -2.0680     0.5470     0.0900 ha         1 K9A       0.133000
     45 H18         -3.8010     1.5030     1.3130 h4         1 K9A       0.026600
     46 H19         -5.9220    -1.2190    -1.2170 h4         1 K9A       0.026600
     47 H20         -7.6860     3.3320    -1.0920 hc         1 K9A       0.060033
     48 H21         -8.7840     2.1890    -0.3310 hc         1 K9A       0.060033
     49 H22         -7.8710     3.3480     0.6570 hc         1 K9A       0.060033
@<TRIPOS>BOND
     1     1     2 1   
     2     1    28 1   
     3     1    29 1   
     4     2     3 ar  
     5     2     5 ar  
     6     3     4 ar  
     7     4     8 ar  
     8     4    30 1   
     9     5     6 ar  
    10     6     7 1   
    11     6     8 ar  
    12     7    31 1   
    13     7    32 1   
    14     8     9 1   
    15     9    10 1   
    16     9    12 1   
    17    10    11 1   
    18    10    33 1   
    19    10    34 1   
    20    11    14 1   
    21    11    35 1   
    22    11    36 1   
    23    12    13 1   
    24    12    37 1   
    25    12    38 1   
    26    13    14 1   
    27    13    39 1   
    28    13    40 1   
    29    14    15 1   
    30    15    16 ar  
    31    15    19 ar  
    32    16    17 ar  
    33    16    41 1   
    34    17    18 ar  
    35    17    42 1   
    36    18    20 ar  
    37    18    43 1   
    38    19    20 ar  
    39    19    44 1   
    40    20    21 1   
    41    21    22 ar  
    42    21    24 ar  
    43    22    23 ar  
    44    22    45 1   
    45    23    26 ar  
    46    24    25 ar  
    47    24    46 1   
    48    25    26 ar  
    49    26    27 1   
    50    27    47 1   
    51    27    48 1   
    52    27    49 1   
@<TRIPOS>SUBSTRUCTURE
     1 K9A         1 TEMP              0 ****  ****    0 ROOT
