@<TRIPOS>MOLECULE
K9A
   49    52     1     0     0
SMALL
No Charge or Current Charge


@<TRIPOS>ATOM
      1 N7           8.0270     1.9280     0.2550 nv         1 K9A      -1.045900
      2 C17          6.7740     1.4280     0.1640 ca         1 K9A       0.396900
      3 N4           5.7760     2.2750     0.4470 nb         1 K9A      -0.270000
      4 C16          4.5260     1.7760     0.3540 ca         1 K9A       0.145900
      5 N5           6.6830     0.1450    -0.2000 nb         1 K9A      -0.322000
      6 C18          5.4410    -0.3470    -0.2840 ca         1 K9A       0.415900
      7 N6           5.3760    -1.6480    -0.6930 nv         1 K9A      -1.054900
      8 C15          4.2770     0.4320    -0.0140 ca         1 K9A       0.005000
      9 N3           2.9440    -0.0910    -0.1120 nh         1 K9A      -0.759400
     10 C12          2.4760    -1.1040     0.8900 c6         1 K9A       0.172300
     11 C11          1.2260    -1.9130     0.4060 c6         1 K9A       0.198300
     12 C13          1.8220     0.7940    -0.5650 c6         1 K9A       0.172300
     13 C14          0.5730    -0.0090    -1.0590 c6         1 K9A       0.198300
     14 N2           0.1100    -1.0330    -0.0680 nh         1 K9A      -0.790400
     15 C9          -1.2270    -1.4950    -0.1040 ca         1 K9A       0.305000
     16 C8          -1.5260    -2.8650    -0.2370 ca         1 K9A      -0.170000
     17 C7          -2.8590    -3.3010    -0.2740 ca         1 K9A      -0.076000
     18 C6          -3.9060    -2.3710    -0.1770 ca         1 K9A      -0.136000
     19 C10         -2.2870    -0.5740    -0.0040 ca         1 K9A      -0.149000
     20 C5          -3.6420    -0.9870    -0.0380 cp         1 K9A       0.001000
     21 C3          -4.7580     0.0070     0.0710 cp         1 K9A      -0.144000
     22 C2          -4.6160     1.2330     0.7690 ca         1 K9A       0.119400
     23 N           -5.6180     2.1290     0.8700 nb         1 K9A      -0.180000
     24 C4          -6.0290    -0.2140    -0.5180 ca         1 K9A       0.119400
     25 N1          -7.0360     0.6780    -0.4240 nb         1 K9A      -0.180000
     26 C1          -6.7820     1.8070     0.2690 ca         1 K9A       0.135300
     27 C           -7.9110     2.8180     0.3720 c3         1 K9A      -0.134400
     28 H1           8.1600     2.8170     0.7310 hn         1 K9A       0.484000
     29 H2           8.8110     1.2800     0.2620 hn         1 K9A       0.484000
     30 H3           3.7160     2.4650     0.5870 h4         1 K9A       0.017100
     31 H4           4.4610    -1.9560    -1.0110 hn         1 K9A       0.491500
     32 H5           6.1800    -2.0370    -1.1770 hn         1 K9A       0.491500
     33 H6           3.2800    -1.8160     1.1270 h1         1 K9A       0.046700
     34 H7           2.2160    -0.5940     1.8290 h1         1 K9A       0.046700
     35 H8           1.5380    -2.5850    -0.4070 h1         1 K9A       0.044450
     36 H9           0.8840    -2.5440     1.2400 h1         1 K9A       0.044450
     37 H10          1.5090     1.4490     0.2620 h1         1 K9A       0.046700
     38 H11          2.1610     1.4450    -1.3850 h1         1 K9A       0.046700
     39 H12         -0.2290     0.7080    -1.2840 h1         1 K9A       0.044450
     40 H13          0.8300    -0.5070    -2.0050 h1         1 K9A       0.044450
     41 H14         -0.7300    -3.5970    -0.3240 ha         1 K9A       0.114000
     42 H15         -3.0820    -4.3610    -0.3780 ha         1 K9A       0.113000
     43 H16         -4.9300    -2.7340    -0.1950 ha         1 K9A       0.117000
     44 H17         -2.0510     0.4790     0.1000 ha         1 K9A       0.115000
     45 H18         -3.6870     1.4980     1.2700 h4         1 K9A       0.026600
     46 H19         -6.2420    -1.1160    -1.0900 h4         1 K9A       0.026600
     47 H20         -7.8730     3.5300    -0.4610 hc         1 K9A       0.060033
     48 H21         -8.8920     2.3290     0.3490 hc         1 K9A       0.060033
     49 H22         -7.8530     3.3920     1.3050 hc         1 K9A       0.060033
@<TRIPOS>BOND
     1     1     2 1   
     2     1    28 1   
     3     1    29 1   
     4     2     3 ar  
     5     2     5 ar  
     6     3     4 ar  
     7     4     8 ar  
     8     4    30 1   
     9     5     6 ar  
    10     6     7 1   
    11     6     8 ar  
    12     7    31 1   
    13     7    32 1   
    14     8     9 1   
    15     9    10 1   
    16     9    12 1   
    17    10    11 1   
    18    10    33 1   
    19    10    34 1   
    20    11    14 1   
    21    11    35 1   
    22    11    36 1   
    23    12    13 1   
    24    12    37 1   
    25    12    38 1   
    26    13    14 1   
    27    13    39 1   
    28    13    40 1   
    29    14    15 1   
    30    15    16 ar  
    31    15    19 ar  
    32    16    17 ar  
    33    16    41 1   
    34    17    18 ar  
    35    17    42 1   
    36    18    20 ar  
    37    18    43 1   
    38    19    20 ar  
    39    19    44 1   
    40    20    21 1   
    41    21    22 ar  
    42    21    24 ar  
    43    22    23 ar  
    44    22    45 1   
    45    23    26 ar  
    46    24    25 ar  
    47    24    46 1   
    48    25    26 ar  
    49    26    27 1   
    50    27    47 1   
    51    27    48 1   
    52    27    49 1   
@<TRIPOS>SUBSTRUCTURE
     1 K9A         1 TEMP              0 ****  ****    0 ROOT
