@<TRIPOS>MOLECULE
K9C
   26    26     1     0     0
SMALL
No Charge or Current Charge


@<TRIPOS>ATOM
      1 C02        259.3870   353.1350   -58.8670 ca         1 K9C       0.603900
      2 C03        259.0210   353.9230   -59.9610 ca         1 K9C      -0.229000
      3 C04        259.9280   354.0580   -61.0230 ca         1 K9C      -0.001300
      4 C05        261.1570   353.3880   -60.9060 ca         1 K9C      -0.200000
      5 C06        261.4170   352.6240   -59.7530 ca         1 K9C       0.522000
      6 C07        259.5990   354.8990   -62.2440 c3         1 K9C      -0.053800
      7 C08        262.6620   351.9290   -59.6030 cg         1 K9C      -0.215000
      8 C09        263.7230   351.3440   -59.4870 c1         1 K9C      -0.106100
      9 C10        265.0130   350.6680   -59.3130 c3         1 K9C       0.241900
     10 C12        267.3950   350.7310   -60.0310 c3         1 K9C       0.141100
     11 N01        260.5390   352.4970   -58.7360 nb         1 K9C      -0.732000
     12 N02        258.6040   352.9450   -57.8030 nv         1 K9C      -1.059900
     13 N11        266.0430   351.3100   -60.1490 n7         1 K9C      -0.847400
     14 H1         258.0540   354.4160   -59.9860 ha         1 K9C       0.119000
     15 H2         261.9030   353.4560   -61.6920 ha         1 K9C       0.127000
     16 H3         260.0790   354.4990   -63.1450 hc         1 K9C       0.047367
     17 H4         258.5190   354.9270   -62.4310 hc         1 K9C       0.047367
     18 H5         259.9440   355.9320   -62.1110 hc         1 K9C       0.047367
     19 H6         264.8940   349.6090   -59.5850 h1         1 K9C       0.047700
     20 H7         265.2890   350.7110   -58.2500 h1         1 K9C       0.047700
     21 H8         268.1010   351.2620   -60.6850 h1         1 K9C       0.031367
     22 H9         267.7660   350.8040   -59.0000 h1         1 K9C       0.031367
     23 H10        267.3940   349.6720   -60.3220 h1         1 K9C       0.031367
     24 H11        259.0750   352.5610   -56.9920 hn         1 K9C       0.473000
     25 H12        257.8770   353.6290   -57.6240 hn         1 K9C       0.473000
     26 H13        266.0900   352.2990   -59.8720 hn         1 K9C       0.411000
@<TRIPOS>BOND
     1     1     2 ar  
     2     1    11 ar  
     3     1    12 1   
     4     2     3 ar  
     5     2    14 1   
     6     3     4 ar  
     7     3     6 1   
     8     4     5 ar  
     9     4    15 1   
    10     5     7 1   
    11     5    11 ar  
    12     6    16 1   
    13     6    17 1   
    14     6    18 1   
    15     7     8 3   
    16     8     9 1   
    17     9    13 1   
    18     9    19 1   
    19     9    20 1   
    20    10    13 1   
    21    10    21 1   
    22    10    22 1   
    23    10    23 1   
    24    12    24 1   
    25    12    25 1   
    26    13    26 1   
@<TRIPOS>SUBSTRUCTURE
     1 K9C         1 TEMP              0 ****  ****    0 ROOT
