@<TRIPOS>MOLECULE
K9C
   26    26     1     0     0
SMALL
bcc


@<TRIPOS>ATOM
      1 C02        259.3320   352.7430   -59.0930 ca         1 K9C       0.669200
      2 C03        258.9910   353.7040   -60.0650 ca         1 K9C      -0.312300
      3 C04        259.9780   354.2390   -60.8650 ca         1 K9C      -0.001300
      4 C05        261.2910   353.7920   -60.6780 ca         1 K9C      -0.283300
      5 C06        261.5310   352.8440   -59.6990 ca         1 K9C       0.587300
      6 C07        259.6700   355.2740   -61.9020 c3         1 K9C      -0.053800
      7 C08        262.8660   352.3670   -59.4870 cg         1 K9C      -0.215000
      8 C09        263.9940   351.9760   -59.3220 c1         1 K9C      -0.106100
      9 C10        265.3650   351.5100   -59.1400 c3         1 K9C       0.241900
     10 C12        267.1170   350.1200   -60.0100 c3         1 K9C       0.141100
     11 N01        260.5790   352.3250   -58.9150 nb         1 K9C      -0.732000
     12 N02        258.3670   352.1710   -58.3200 nv         1 K9C      -0.949500
     13 N11        265.7620   350.6000   -60.1990 n7         1 K9C      -0.792200
     14 H1         257.9600   354.0170   -60.1770 ha         1 K9C       0.137000
     15 H2         262.1040   354.1780   -61.2790 ha         1 K9C       0.145000
     16 H3         260.0410   354.9690   -62.8810 hc         1 K9C       0.047367
     17 H4         258.6000   355.4570   -61.9840 hc         1 K9C       0.047367
     18 H5         260.1570   356.2200   -61.6570 hc         1 K9C       0.047367
     19 H6         265.4310   350.9810   -58.1840 h1         1 K9C       0.047700
     20 H7         266.0270   352.3850   -59.0460 h1         1 K9C       0.047700
     21 H8         267.4060   349.5030   -60.8590 h1         1 K9C       0.031367
     22 H9         267.8650   350.9160   -59.8990 h1         1 K9C       0.031367
     23 H10        267.1670   349.4970   -59.1150 h1         1 K9C       0.031367
     24 H11        258.6770   351.6970   -57.4870 hn         1 K9C       0.417800
     25 H12        257.4910   352.6560   -58.2240 hn         1 K9C       0.417800
     26 H13        265.7030   351.0860   -61.0850 hn         1 K9C       0.355800
@<TRIPOS>BOND
     1     1     2 ar  
     2     1    11 ar  
     3     1    12 1   
     4     2     3 ar  
     5     2    14 1   
     6     3     4 ar  
     7     3     6 1   
     8     4     5 ar  
     9     4    15 1   
    10     5     7 1   
    11     5    11 ar  
    12     6    16 1   
    13     6    17 1   
    14     6    18 1   
    15     7     8 3   
    16     8     9 1   
    17     9    13 1   
    18     9    19 1   
    19     9    20 1   
    20    10    13 1   
    21    10    21 1   
    22    10    22 1   
    23    10    23 1   
    24    12    24 1   
    25    12    25 1   
    26    13    26 1   
@<TRIPOS>SUBSTRUCTURE
     1 K9C         1 TEMP              0 ****  ****    0 ROOT
