@<TRIPOS>MOLECULE
K9D
   78    84     1     0     0
SMALL
No Charge or Current Charge


@<TRIPOS>ATOM
      1 N1          20.6120    24.6940   -14.2010 ns         1 K9D      -0.513900
      2 C7          26.0190    27.3640   -14.7670 ca         1 K9D      -0.197600
      3 C8          24.5320    27.1440   -14.7550 c          1 K9D       0.589600
      4 N2          16.6730    28.4000    -6.9920 ns         1 K9D      -0.522900
      5 C9          22.5120    26.2250   -13.6350 c3         1 K9D       0.068000
      6 O1          14.4690    28.1680    -7.5330 o          1 K9D      -0.577000
      7 C1          26.2460    26.1490   -12.6720 ca         1 K9D      -0.173600
      8 C5          28.2350    27.0830   -13.7610 ca         1 K9D      -0.077000
      9 C6          26.8340    26.8660   -13.7330 ca         1 K9D       0.041000
     10 N3          16.0620    28.6230    -9.1010 ns         1 K9D      -0.510900
     11 C4          29.0350    26.5640   -12.7180 ca         1 K9D      -0.045000
     12 C3          28.4490    25.8520   -11.6630 ca         1 K9D      -0.147000
     13 O3          23.8280    27.5770   -15.6580 o          1 K9D      -0.509000
     14 C2          27.0630    25.6450   -11.6370 ca         1 K9D      -0.013000
     15 N4          30.2050    28.0700   -14.8900 nh         1 K9D      -0.773400
     16 C21         26.6080    28.0800   -15.8290 ca         1 K9D       0.013000
     17 C22         27.9910    28.2970   -15.8560 ca         1 K9D      -0.195000
     18 C23         28.8160    27.8070   -14.8330 ca         1 K9D       0.331000
     19 C32         30.7650    29.1910   -14.0980 c6         1 K9D       0.189800
     20 C31         30.6810    30.5060   -14.9030 c6         1 K9D      -0.069100
     21 C30         31.2150    30.3580   -16.3290 ca         1 K9D      -0.069300
     22 C29         31.5620    31.5050   -17.0690 ca         1 K9D      -0.105000
     23 C28         32.0390    31.3820   -18.3850 ca         1 K9D      -0.103000
     24 C27         32.1680    30.1110   -18.9680 ca         1 K9D      -0.108000
     25 C26         31.8200    28.9630   -18.2360 ca         1 K9D      -0.102000
     26 C25         31.3400    29.0770   -16.9170 ca         1 K9D      -0.120300
     27 C24         30.9670    27.8020   -16.1400 c6         1 K9D       0.226100
     28 N           23.9910    26.4220   -13.6820 n          1 K9D      -0.371400
     29 C           24.7630    25.9120   -12.6280 c          1 K9D       0.591600
     30 O           24.2530    25.2860   -11.7070 o          1 K9D      -0.536000
     31 C10         22.0560    24.9250   -14.3310 c3         1 K9D       0.089000
     32 C11         19.6380    25.4140   -14.8550 c          1 K9D       0.593100
     33 O2          19.9050    26.2830   -15.6720 o          1 K9D      -0.589100
     34 C12         18.1980    25.0240   -14.5050 c3         1 K9D      -0.156400
     35 C13         17.4970    26.0940   -13.6320 c3         1 K9D      -0.060400
     36 C14         18.1730    26.3200   -12.2580 c3         1 K9D      -0.078400
     37 C15         17.4320    27.3570   -11.3820 c3         1 K9D      -0.058400
     38 C16         18.1170    27.6450   -10.0190 c5         1 K9D       0.076300
     39 C19         17.5140    28.8270    -9.1730 c5         1 K9D       0.095700
     40 C18         17.9560    28.6210    -7.6650 c5         1 K9D       0.101700
     41 C17         18.7100    27.2530    -7.5480 c5         1 K9D       0.029600
     42 S           18.0650    26.1690    -8.9030 ss         1 K9D      -0.411000
     43 C20         15.6250    28.3710    -7.8470 c          1 K9D       0.612000
     44 H10         20.2940    23.9810   -13.5540 hn         1 K9D       0.312500
     45 H21         16.5190    28.2270    -6.0070 hn         1 K9D       0.340500
     46 H7          22.0060    27.0810   -14.1010 h1         1 K9D       0.073700
     47 H6          22.1720    26.2070   -12.5910 h1         1 K9D       0.073700
     48 H22         15.4000    28.6450    -9.8660 hn         1 K9D       0.335500
     49 H5          30.1130    26.7040   -12.7180 ha         1 K9D       0.128000
     50 H4          29.0710    25.4560   -10.8640 ha         1 K9D       0.123000
     51 H3          26.6280    25.0890   -10.8080 ha         1 K9D       0.139000
     52 H23         25.9960    28.4770   -16.6370 ha         1 K9D       0.140000
     53 H24         28.4230    28.8630   -16.6750 ha         1 K9D       0.131000
     54 H34         30.2290    29.3050   -13.1440 h1         1 K9D       0.062200
     55 H33         31.8170    28.9830   -13.8490 h1         1 K9D       0.062200
     56 H32         31.2320    31.2930   -14.3690 hc         1 K9D       0.061200
     57 H31         29.6350    30.8360   -14.9460 hc         1 K9D       0.061200
     58 H30         31.4600    32.4920   -16.6240 ha         1 K9D       0.113000
     59 H29         32.3070    32.2710   -18.9520 ha         1 K9D       0.116000
     60 H28         32.5380    30.0150   -19.9870 ha         1 K9D       0.116000
     61 H27         31.9220    27.9820   -18.6960 ha         1 K9D       0.113000
     62 H25         30.3890    27.1400   -16.8010 h1         1 K9D       0.067700
     63 H26         31.8920    27.2570   -15.8970 h1         1 K9D       0.067700
     64 H9          22.5860    24.0730   -13.8880 h1         1 K9D       0.064200
     65 H8          22.3180    24.9690   -15.3970 h1         1 K9D       0.064200
     66 H11         17.6300    24.9220   -15.4370 hc         1 K9D       0.056200
     67 H12         18.1850    24.0710   -13.9620 hc         1 K9D       0.056200
     68 H13         17.4650    27.0440   -14.1810 hc         1 K9D       0.049200
     69 H14         16.4560    25.7880   -13.4720 hc         1 K9D       0.049200
     70 H15         18.2260    25.3630   -11.7250 hc         1 K9D       0.051200
     71 H16         19.2050    26.6600   -12.4090 hc         1 K9D       0.051200
     72 H17         17.3550    28.2950   -11.9470 hc         1 K9D       0.052200
     73 H18         16.4050    27.0060   -11.2220 hc         1 K9D       0.052200
     74 H           19.1730    27.8690   -10.2220 h1         1 K9D       0.073700
     75 H2          17.7820    29.8160    -9.5690 h1         1 K9D       0.063700
     76 H1          18.5220    29.4660    -7.2500 h1         1 K9D       0.069700
     77 H19         18.5780    26.7780    -6.5660 h1         1 K9D       0.076700
     78 H20         19.7870    27.3990    -7.7040 h1         1 K9D       0.076700
@<TRIPOS>BOND
     1     1    31 1   
     2     1    32 1   
     3     1    44 1   
     4     2     3 1   
     5     2     9 ar  
     6     2    16 ar  
     7     3    13 2   
     8     3    28 1   
     9     4    40 1   
    10     4    43 1   
    11     4    45 1   
    12     5    28 1   
    13     5    31 1   
    14     5    46 1   
    15     5    47 1   
    16     6    43 2   
    17     7     9 ar  
    18     7    14 ar  
    19     7    29 1   
    20     8     9 ar  
    21     8    11 ar  
    22     8    18 ar  
    23    10    39 1   
    24    10    43 1   
    25    10    48 1   
    26    11    12 ar  
    27    11    49 1   
    28    12    14 ar  
    29    12    50 1   
    30    14    51 1   
    31    15    18 1   
    32    15    19 1   
    33    15    27 1   
    34    16    17 ar  
    35    16    52 1   
    36    17    18 ar  
    37    17    53 1   
    38    19    20 1   
    39    19    54 1   
    40    19    55 1   
    41    20    21 1   
    42    20    56 1   
    43    20    57 1   
    44    21    22 ar  
    45    21    26 ar  
    46    22    23 ar  
    47    22    58 1   
    48    23    24 ar  
    49    23    59 1   
    50    24    25 ar  
    51    24    60 1   
    52    25    26 ar  
    53    25    61 1   
    54    26    27 1   
    55    27    62 1   
    56    27    63 1   
    57    28    29 1   
    58    29    30 2   
    59    31    64 1   
    60    31    65 1   
    61    32    33 2   
    62    32    34 1   
    63    34    35 1   
    64    34    66 1   
    65    34    67 1   
    66    35    36 1   
    67    35    68 1   
    68    35    69 1   
    69    36    37 1   
    70    36    70 1   
    71    36    71 1   
    72    37    38 1   
    73    37    72 1   
    74    37    73 1   
    75    38    39 1   
    76    38    42 1   
    77    38    74 1   
    78    39    40 1   
    79    39    75 1   
    80    40    41 1   
    81    40    76 1   
    82    41    42 1   
    83    41    77 1   
    84    41    78 1   
@<TRIPOS>SUBSTRUCTURE
     1 K9D         1 TEMP              0 ****  ****    0 ROOT
