@<TRIPOS>MOLECULE
K9D
   78    84     1     0     0
SMALL
bcc


@<TRIPOS>ATOM
      1 N1          21.3280    23.8530   -13.1550 ns         1 K9D      -0.580900
      2 C7          26.3240    26.5430   -14.6400 ca         1 K9D      -0.197600
      3 C8          24.9880    26.2450   -14.1200 c          1 K9D       0.732100
      4 N2          15.8050    30.9450    -8.7430 ns         1 K9D      -0.589900
      5 C9          23.5430    24.8340   -12.7550 c3         1 K9D       0.068000
      6 O1          13.6960    30.1640    -9.2420 o          1 K9D      -0.652500
      7 C1          27.1800    24.4590   -13.7110 ca         1 K9D      -0.173600
      8 C5          28.6880    25.9620   -14.9120 ca         1 K9D      -0.077000
      9 C6          27.3990    25.6630   -14.4100 ca         1 K9D       0.041000
     10 N3          15.5520    29.7100   -10.5320 ns         1 K9D      -0.577900
     11 C4          29.6910    24.9770   -14.7950 ca         1 K9D      -0.063000
     12 C3          29.4530    23.7980   -14.1350 ca         1 K9D      -0.165000
     13 O3          24.0260    26.9560   -14.3350 o          1 K9D      -0.584500
     14 C2          28.1990    23.5450   -13.5670 ca         1 K9D      -0.031000
     15 N4          30.2020    27.5550   -15.9500 nh         1 K9D      -0.635000
     16 C21         26.5400    27.6840   -15.3780 ca         1 K9D      -0.005000
     17 C22         27.8150    28.0230   -15.8320 ca         1 K9D      -0.213000
     18 C23         28.9100    27.2160   -15.5730 ca         1 K9D       0.192600
     19 C32         31.1650    27.7710   -14.8650 c6         1 K9D       0.189800
     20 C31         30.8630    29.0640   -14.1220 c6         1 K9D      -0.069100
     21 C30         30.6040    30.2160   -15.0570 ca         1 K9D      -0.069300
     22 C29         30.5960    31.5250   -14.5770 ca         1 K9D      -0.123000
     23 C28         30.3370    32.5940   -15.4190 ca         1 K9D      -0.121000
     24 C27         30.0820    32.3640   -16.7660 ca         1 K9D      -0.126000
     25 C26         30.0870    31.0670   -17.2530 ca         1 K9D      -0.120000
     26 C25         30.3440    29.9890   -16.4080 ca         1 K9D      -0.120300
     27 C24         30.3670    28.5830   -16.9600 c6         1 K9D       0.226100
     28 N           24.8540    25.1020   -13.3390 n          1 K9D      -0.505400
     29 C           25.8550    24.1650   -13.1390 c          1 K9D       0.734100
     30 O           25.6330    23.1510   -12.5070 o          1 K9D      -0.611500
     31 C10         22.6660    23.9850   -13.6760 c3         1 K9D       0.089000
     32 C11         20.3480    24.7430   -13.4080 c          1 K9D       0.660100
     33 O2          20.5250    25.7330   -14.1020 o          1 K9D      -0.589100
     34 C12         19.0000    24.3930   -12.8090 c3         1 K9D      -0.156400
     35 C13         18.0520    25.5760   -12.6870 c3         1 K9D      -0.060400
     36 C14         18.4760    26.6070   -11.6480 c3         1 K9D      -0.078400
     37 C15         17.4760    27.7540   -11.5570 c3         1 K9D      -0.058400
     38 C16         17.8820    28.8520   -10.5920 c5         1 K9D       0.028400
     39 C19         16.9470    30.0680   -10.5820 c5         1 K9D       0.095700
     40 C18         17.1500    30.8390    -9.2450 c5         1 K9D       0.101700
     41 C17         18.0840    30.0260    -8.3390 c5         1 K9D      -0.018300
     42 S           17.9230    28.2970    -8.8550 ss         1 K9D      -0.315200
     43 C20         14.8890    30.2620    -9.4760 c          1 K9D       0.821500
     44 H10         21.1320    23.0760   -12.5460 hn         1 K9D       0.312500
     45 H21         15.5960    31.2840    -7.8190 hn         1 K9D       0.340500
     46 H7          23.0580    25.7880   -12.5590 h1         1 K9D       0.073700
     47 H6          23.6830    24.3350   -11.7990 h1         1 K9D       0.073700
     48 H22         15.0460    29.4370   -11.3580 hn         1 K9D       0.335500
     49 H5          30.6560    25.1370   -15.2570 ha         1 K9D       0.146000
     50 H4          30.2340    23.0530   -14.0610 ha         1 K9D       0.141000
     51 H3          28.0270    22.6190   -13.0350 ha         1 K9D       0.157000
     52 H23         25.7200    28.3610   -15.5800 ha         1 K9D       0.158000
     53 H24         27.9360    28.9640   -16.3500 ha         1 K9D       0.149000
     54 H34         31.1630    26.9340   -14.1700 h1         1 K9D       0.062200
     55 H33         32.1600    27.8060   -15.3150 h1         1 K9D       0.062200
     56 H32         31.6940    29.3010   -13.4530 hc         1 K9D       0.061200
     57 H31         29.9900    28.9170   -13.4770 hc         1 K9D       0.061200
     58 H30         30.7960    31.7030   -13.5270 ha         1 K9D       0.131000
     59 H29         30.3350    33.6030   -15.0280 ha         1 K9D       0.134000
     60 H28         29.8750    33.1920   -17.4320 ha         1 K9D       0.134000
     61 H27         29.8830    30.8840   -18.3020 ha         1 K9D       0.131000
     62 H25         29.6140    28.4580   -17.7390 h1         1 K9D       0.067700
     63 H26         31.3320    28.4030   -17.4450 h1         1 K9D       0.067700
     64 H9          23.0910    22.9880   -13.7860 h1         1 K9D       0.064200
     65 H8          22.6240    24.4330   -14.6680 h1         1 K9D       0.064200
     66 H11         18.5520    23.6310   -13.4560 hc         1 K9D       0.056200
     67 H12         19.1360    23.9120   -11.8360 hc         1 K9D       0.056200
     68 H13         17.9400    26.0590   -13.6610 hc         1 K9D       0.049200
     69 H14         17.0620    25.1920   -12.4240 hc         1 K9D       0.049200
     70 H15         18.5750    26.1170   -10.6740 hc         1 K9D       0.051200
     71 H16         19.4620    27.0080   -11.8940 hc         1 K9D       0.051200
     72 H17         17.3680    28.2060   -12.5500 hc         1 K9D       0.052200
     73 H18         16.4920    27.3640   -11.2830 hc         1 K9D       0.052200
     74 H           18.8860    29.2080   -10.8490 h1         1 K9D       0.073700
     75 H2          17.1630    30.6970   -11.4500 h1         1 K9D       0.063700
     76 H1          17.5830    31.8280    -9.4100 h1         1 K9D       0.069700
     77 H19         17.8300    30.1340    -7.2850 h1         1 K9D       0.076700
     78 H20         19.1160    30.3540    -8.4740 h1         1 K9D       0.076700
@<TRIPOS>BOND
     1     1    31 1   
     2     1    32 1   
     3     1    44 1   
     4     2     3 1   
     5     2     9 ar  
     6     2    16 ar  
     7     3    13 2   
     8     3    28 1   
     9     4    40 1   
    10     4    43 1   
    11     4    45 1   
    12     5    28 1   
    13     5    31 1   
    14     5    46 1   
    15     5    47 1   
    16     6    43 2   
    17     7     9 ar  
    18     7    14 ar  
    19     7    29 1   
    20     8     9 ar  
    21     8    11 ar  
    22     8    18 ar  
    23    10    39 1   
    24    10    43 1   
    25    10    48 1   
    26    11    12 ar  
    27    11    49 1   
    28    12    14 ar  
    29    12    50 1   
    30    14    51 1   
    31    15    18 1   
    32    15    19 1   
    33    15    27 1   
    34    16    17 ar  
    35    16    52 1   
    36    17    18 ar  
    37    17    53 1   
    38    19    20 1   
    39    19    54 1   
    40    19    55 1   
    41    20    21 1   
    42    20    56 1   
    43    20    57 1   
    44    21    22 ar  
    45    21    26 ar  
    46    22    23 ar  
    47    22    58 1   
    48    23    24 ar  
    49    23    59 1   
    50    24    25 ar  
    51    24    60 1   
    52    25    26 ar  
    53    25    61 1   
    54    26    27 1   
    55    27    62 1   
    56    27    63 1   
    57    28    29 1   
    58    29    30 2   
    59    31    64 1   
    60    31    65 1   
    61    32    33 2   
    62    32    34 1   
    63    34    35 1   
    64    34    66 1   
    65    34    67 1   
    66    35    36 1   
    67    35    68 1   
    68    35    69 1   
    69    36    37 1   
    70    36    70 1   
    71    36    71 1   
    72    37    38 1   
    73    37    72 1   
    74    37    73 1   
    75    38    39 1   
    76    38    42 1   
    77    38    74 1   
    78    39    40 1   
    79    39    75 1   
    80    40    41 1   
    81    40    76 1   
    82    41    42 1   
    83    41    77 1   
    84    41    78 1   
@<TRIPOS>SUBSTRUCTURE
     1 K9D         1 TEMP              0 ****  ****    0 ROOT
