@<TRIPOS>MOLECULE
K9F
   42    45     1     0     0
SMALL
abcg2


@<TRIPOS>ATOM
      1 C11         30.7030   -49.8470    -9.2640 cc         1 K9F      -0.212000
      2 C13         28.9210   -50.1960   -10.9900 c3         1 K9F       0.058900
      3 C15         28.9010   -46.1660   -13.3640 ca         1 K9F      -0.042300
      4 C16         27.9810   -45.1640   -15.8480 ca         1 K9F      -0.075000
      5 C17         27.2230   -46.0360   -15.1190 ca         1 K9F      -0.099000
      6 C18         27.6850   -46.5340   -13.8830 ca         1 K9F      -0.106000
      7 C19         29.2370   -44.7570   -15.3520 ca         1 K9F       0.225000
      8 C20         29.6990   -45.2570   -14.1080 ca         1 K9F       0.226000
      9 C22         31.5990   -44.0350   -14.3320 ca         1 K9F       0.298900
     10 C23         31.1380   -43.5400   -15.5750 ca         1 K9F       0.297900
     11 C1          32.6120   -49.6070    -6.8990 ca         1 K9F      -0.096000
     12 C2          32.7650   -48.8990    -8.0950 ca         1 K9F      -0.098500
     13 C3          33.8950   -48.0910    -8.2440 ca         1 K9F      -0.096000
     14 C4          34.8390   -47.9960    -7.2330 ca         1 K9F      -0.115500
     15 C5          34.6780   -48.7070    -6.0510 ca         1 K9F      -0.112000
     16 C6          33.5580   -49.5130    -5.8910 ca         1 K9F      -0.115500
     17 C7          31.7730   -48.9950    -9.1640 cd         1 K9F       0.295500
     18 N8          31.8110   -48.1870   -10.2680 nd         1 K9F      -0.663000
     19 C9          30.7940   -48.5340   -11.0150 cc         1 K9F       0.405800
     20 N10         30.0900   -49.5420   -10.4430 na         1 K9F      -0.163500
     21 C12         30.3960   -47.8850   -12.2940 c3         1 K9F      -0.098700
     22 C14         29.3960   -46.7360   -12.0680 c3         1 K9F      -0.025100
     23 N21         30.8990   -44.8710   -13.6190 nb         1 K9F      -0.623000
     24 N24         29.9860   -43.8910   -16.0730 nb         1 K9F      -0.626000
     25 H30         30.3370   -50.6340    -8.6250 h4         1 K9F       0.156000
     26 H34         28.5960   -50.9730   -10.3040 h1         1 K9F       0.052367
     27 H33         28.1050   -49.4880   -11.1230 h1         1 K9F       0.052367
     28 H35         29.1500   -50.6560   -11.9500 h1         1 K9F       0.052367
     29 H38         27.6430   -44.7720   -16.7990 ha         1 K9F       0.135000
     30 H39         26.2560   -46.3540   -15.4880 ha         1 K9F       0.119000
     31 H40         27.0600   -47.2250   -13.3300 ha         1 K9F       0.114000
     32 H41         32.5620   -43.7190   -13.9470 h4         1 K9F       0.032100
     33 H42         31.7490   -42.8470   -16.1420 h4         1 K9F       0.030100
     34 H25         31.7420   -50.2340    -6.7470 ha         1 K9F       0.118500
     35 H26         34.0330   -47.5350    -9.1620 ha         1 K9F       0.118500
     36 H27         35.7070   -47.3640    -7.3710 ha         1 K9F       0.109000
     37 H28         35.4160   -48.6320    -5.2630 ha         1 K9F       0.109000
     38 H29         33.4160   -50.0690    -4.9730 ha         1 K9F       0.109000
     39 H31         31.2920   -47.4960   -12.7770 hc         1 K9F       0.064700
     40 H32         29.9610   -48.6190   -12.9760 hc         1 K9F       0.064700
     41 H37         28.5420   -47.1010   -11.4940 hc         1 K9F       0.061700
     42 H36         29.8780   -45.9650   -11.4660 hc         1 K9F       0.061700
@<TRIPOS>BOND
     1     1    17 2   
     2     1    20 1   
     3     1    25 1   
     4     2    20 1   
     5     2    26 1   
     6     2    27 1   
     7     2    28 1   
     8     3     6 ar  
     9     3     8 ar  
    10     3    22 1   
    11     4     5 ar  
    12     4     7 ar  
    13     4    29 1   
    14     5     6 ar  
    15     5    30 1   
    16     6    31 1   
    17     7     8 ar  
    18     7    24 ar  
    19     8    23 ar  
    20     9    10 ar  
    21     9    23 ar  
    22     9    32 1   
    23    10    24 ar  
    24    10    33 1   
    25    11    12 ar  
    26    11    16 ar  
    27    11    34 1   
    28    12    13 ar  
    29    12    17 1   
    30    13    14 ar  
    31    13    35 1   
    32    14    15 ar  
    33    14    36 1   
    34    15    16 ar  
    35    15    37 1   
    36    16    38 1   
    37    17    18 1   
    38    18    19 2   
    39    19    20 1   
    40    19    21 1   
    41    21    22 1   
    42    21    39 1   
    43    21    40 1   
    44    22    41 1   
    45    22    42 1   
@<TRIPOS>SUBSTRUCTURE
     1 K9F         1 TEMP              0 ****  ****    0 ROOT
