@<TRIPOS>MOLECULE
K9F
   42    45     1     0     0
SMALL
No Charge or Current Charge


@<TRIPOS>ATOM
      1 C11         30.6480   -49.8110    -9.1260 cc         1 K9F      -0.212000
      2 C13         28.7260   -50.1380   -10.7520 c3         1 K9F       0.058900
      3 C15         28.9470   -46.1730   -13.4930 ca         1 K9F      -0.042300
      4 C16         28.0750   -45.2130   -15.9960 ca         1 K9F      -0.075000
      5 C17         27.3230   -46.1810   -15.3150 ca         1 K9F      -0.099000
      6 C18         27.7580   -46.6570   -14.0720 ca         1 K9F      -0.106000
      7 C19         29.2690   -44.7090   -15.4510 ca         1 K9F       0.225000
      8 C20         29.7230   -45.1940   -14.1730 ca         1 K9F       0.226000
      9 C22         31.5650   -43.7920   -14.3310 ca         1 K9F       0.298900
     10 C23         31.1120   -43.3190   -15.5840 ca         1 K9F       0.297900
     11 C1          32.7220   -49.7550    -6.9240 ca         1 K9F      -0.096000
     12 C2          32.8010   -48.9350    -8.0730 ca         1 K9F      -0.098500
     13 C3          33.8980   -48.0510    -8.1980 ca         1 K9F      -0.096000
     14 C4          34.8870   -47.9890    -7.2010 ca         1 K9F      -0.115500
     15 C5          34.7950   -48.8090    -6.0650 ca         1 K9F      -0.112000
     16 C6          33.7130   -49.6910    -5.9280 ca         1 K9F      -0.115500
     17 C7          31.7580   -49.0020    -9.1220 cd         1 K9F       0.295500
     18 N8          31.7920   -48.2220   -10.2610 nd         1 K9F      -0.663000
     19 C9          30.7150   -48.5490   -10.9540 cc         1 K9F       0.405800
     20 N10         29.9820   -49.5200   -10.2960 na         1 K9F      -0.163500
     21 C12         30.3400   -47.9340   -12.2770 c3         1 K9F      -0.098700
     22 C14         29.3720   -46.7380   -12.1350 c3         1 K9F      -0.025100
     23 N21         30.8800   -44.7250   -13.6200 nb         1 K9F      -0.623000
     24 N24         29.9640   -43.7720   -16.1530 nb         1 K9F      -0.626000
     25 H30         30.2960   -50.5420    -8.4110 h4         1 K9F       0.156000
     26 H34         28.3740   -50.8610   -10.0060 h1         1 K9F       0.052367
     27 H33         27.9610   -49.3640   -10.8890 h1         1 K9F       0.052367
     28 H35         28.8930   -50.6570   -11.7040 h1         1 K9F       0.052367
     29 H38         27.7310   -44.8490   -16.9600 ha         1 K9F       0.135000
     30 H39         26.4030   -46.5620   -15.7530 ha         1 K9F       0.119000
     31 H40         27.1670   -47.4110   -13.5560 ha         1 K9F       0.114000
     32 H41         32.4880   -43.4160   -13.8920 h4         1 K9F       0.032100
     33 H42         31.6760   -42.5700   -16.1380 h4         1 K9F       0.030100
     34 H25         31.8940   -50.4460    -6.7940 ha         1 K9F       0.118500
     35 H26         33.9890   -47.4060    -9.0690 ha         1 K9F       0.118500
     36 H27         35.7250   -47.3040    -7.3100 ha         1 K9F       0.109000
     37 H28         35.5610   -48.7600    -5.2940 ha         1 K9F       0.109000
     38 H29         33.6390   -50.3270    -5.0490 ha         1 K9F       0.109000
     39 H31         31.2470   -47.5990   -12.7930 hc         1 K9F       0.064700
     40 H32         29.8850   -48.6930   -12.9230 hc         1 K9F       0.064700
     41 H37         28.4870   -47.0600   -11.5720 hc         1 K9F       0.061700
     42 H36         29.8420   -45.9630   -11.5180 hc         1 K9F       0.061700
@<TRIPOS>BOND
     1     1    17 2   
     2     1    20 1   
     3     1    25 1   
     4     2    20 1   
     5     2    26 1   
     6     2    27 1   
     7     2    28 1   
     8     3     6 ar  
     9     3     8 ar  
    10     3    22 1   
    11     4     5 ar  
    12     4     7 ar  
    13     4    29 1   
    14     5     6 ar  
    15     5    30 1   
    16     6    31 1   
    17     7     8 ar  
    18     7    24 ar  
    19     8    23 ar  
    20     9    10 ar  
    21     9    23 ar  
    22     9    32 1   
    23    10    24 ar  
    24    10    33 1   
    25    11    12 ar  
    26    11    16 ar  
    27    11    34 1   
    28    12    13 ar  
    29    12    17 1   
    30    13    14 ar  
    31    13    35 1   
    32    14    15 ar  
    33    14    36 1   
    34    15    16 ar  
    35    15    37 1   
    36    16    38 1   
    37    17    18 1   
    38    18    19 2   
    39    19    20 1   
    40    19    21 1   
    41    21    22 1   
    42    21    39 1   
    43    21    40 1   
    44    22    41 1   
    45    22    42 1   
@<TRIPOS>SUBSTRUCTURE
     1 K9F         1 TEMP              0 ****  ****    0 ROOT
