@<TRIPOS>MOLECULE
K9H
   54    54     1     0     0
SMALL
No Charge or Current Charge


@<TRIPOS>ATOM
      1 CAA        -13.4940     1.2000    -0.8190 c3         1 K9H      -0.087100
      2 OAB          5.5710     2.9060     0.9370 o          1 K9H      -0.968000
      3 OAC          3.9680    -1.3570    -1.6730 o          1 K9H      -0.968000
      4 OAD          6.2110     2.5770    -1.3420 o          1 K9H      -0.968000
      5 OAE          7.2180     1.2050     0.4420 o          1 K9H      -0.968000
      6 OAF          5.8390    -1.6600    -0.2030 o          1 K9H      -0.968000
      7 OAG          6.0820    -0.3580    -2.2710 o          1 K9H      -0.968000
      8 CAH          2.7370    -1.8830     1.3490 ca         1 K9H       0.369900
      9 CAI          0.4340    -2.0880     1.1420 ca         1 K9H       0.168900
     10 CAJ          1.4370     0.1110     0.8790 ca         1 K9H      -0.161000
     11 CAK        -12.3290     0.2310    -0.5390 c3         1 K9H      -0.075400
     12 CAL        -10.9530     0.9300    -0.5190 c3         1 K9H      -0.076400
     13 CAM         -9.7850    -0.0420    -0.2390 c3         1 K9H      -0.075400
     14 CAN         -8.4080     0.6580    -0.2190 c3         1 K9H      -0.075400
     15 CAO         -7.2410    -0.3140     0.0610 c3         1 K9H      -0.075400
     16 CAP         -5.8640     0.3850     0.0820 c3         1 K9H      -0.075400
     17 CAQ         -4.6970    -0.5860     0.3620 c3         1 K9H      -0.074400
     18 CAR         -3.3190     0.1120     0.3830 c3         1 K9H      -0.081400
     19 CAS         -2.1580    -0.8610     0.6640 c3         1 K9H       0.178600
     20 NAU          1.6280    -2.6780     1.3740 nb         1 K9H      -0.711000
     21 OAV         -0.9370    -0.1000     0.6620 os         1 K9H      -0.361100
     22 CAW          2.6920    -0.4890     1.1140 ca         1 K9H       0.037700
     23 CAX          0.2880    -0.6980     0.8880 ca         1 K9H       0.015100
     24 CAY          4.5820     0.7350    -0.2020 c3         1 K9H      -0.671700
     25 PAZ          5.9760     1.8640    -0.0520 p5         1 K9H       1.356000
     26 PBA          5.1860    -0.6900    -1.1280 p5         1 K9H       1.356000
     27 HAA        -14.4480     0.6590    -0.8230 hc         1 K9H       0.025367
     28 HAAA       -13.5450     1.9780    -0.0480 hc         1 K9H       0.025367
     29 HAAB       -13.3700     1.6850    -1.7940 hc         1 K9H       0.025367
     30 HAH          3.6910    -2.3730     1.5470 h4         1 K9H       0.093100
     31 HAI         -0.4210    -2.7600     1.1680 h4         1 K9H      -0.060900
     32 HAJ          1.3580     1.1800     0.7010 ha         1 K9H       0.113000
     33 HAK        -12.5010    -0.2630     0.4250 hc         1 K9H       0.034700
     34 HAKA       -12.3280    -0.5540    -1.3060 hc         1 K9H       0.034700
     35 HAL        -10.7860     1.4250    -1.4840 hc         1 K9H       0.035700
     36 HALA       -10.9590     1.7160     0.2470 hc         1 K9H       0.035700
     37 HAM         -9.9520    -0.5360     0.7260 hc         1 K9H       0.034200
     38 HAMA        -9.7790    -0.8270    -1.0050 hc         1 K9H       0.034200
     39 HAN         -8.2410     1.1520    -1.1840 hc         1 K9H       0.035200
     40 HANA        -8.4150     1.4430     0.5470 hc         1 K9H       0.035200
     41 HAO         -7.4080    -0.8080     1.0260 hc         1 K9H       0.033200
     42 HAOA        -7.2340    -1.0990    -0.7050 hc         1 K9H       0.033200
     43 HAP         -5.6970     0.8800    -0.8830 hc         1 K9H       0.035700
     44 HAPA        -5.8710     1.1710     0.8480 hc         1 K9H       0.035700
     45 HAQ         -4.8640    -1.0810     1.3270 hc         1 K9H       0.032200
     46 HAQA        -4.6900    -1.3720    -0.4040 hc         1 K9H       0.032200
     47 HAR         -3.1480     0.6040    -0.5820 hc         1 K9H       0.045700
     48 HARA        -3.3230     0.8960     1.1510 hc         1 K9H       0.045700
     49 HAS         -2.3110    -1.3430     1.6390 h1         1 K9H       0.013200
     50 HASA        -2.1320    -1.6360    -0.1130 h1         1 K9H       0.013200
     51 HAT          3.7150     1.2810     1.7220 hc         1 K9H       0.040200
     52 HATA         4.7180    -0.1410     1.7930 hc         1 K9H       0.040200
     53 HAY          3.8240     1.2380    -0.8090 hc         1 K9H       0.009700
     54 CAT          3.9620     0.3620     1.1770 c3         1 K9H       0.017900
@<TRIPOS>BOND
     1     1    11 1   
     2     1    27 1   
     3     1    28 1   
     4     1    29 1   
     5     2    25 1   
     6     3    26 1   
     7     4    25 1   
     8     5    25 1   
     9     6    26 1   
    10     7    26 1   
    11     8    20 ar  
    12     8    22 ar  
    13     8    30 1   
    14     9    20 ar  
    15     9    23 ar  
    16     9    31 1   
    17    10    22 ar  
    18    10    23 ar  
    19    10    32 1   
    20    11    12 1   
    21    11    33 1   
    22    11    34 1   
    23    12    13 1   
    24    12    35 1   
    25    12    36 1   
    26    13    14 1   
    27    13    37 1   
    28    13    38 1   
    29    14    15 1   
    30    14    39 1   
    31    14    40 1   
    32    15    16 1   
    33    15    41 1   
    34    15    42 1   
    35    16    17 1   
    36    16    43 1   
    37    16    44 1   
    38    17    18 1   
    39    17    45 1   
    40    17    46 1   
    41    18    19 1   
    42    18    47 1   
    43    18    48 1   
    44    19    21 1   
    45    19    49 1   
    46    19    50 1   
    47    21    23 1   
    48    22    54 1   
    49    24    25 1   
    50    24    26 1   
    51    24    53 1   
    52    24    54 1   
    53    51    54 1   
    54    52    54 1   
@<TRIPOS>SUBSTRUCTURE
     1 K9H         1 TEMP              0 ****  ****    0 ROOT
