@<TRIPOS>MOLECULE
K9H
   54    54     1     0     0
SMALL
bcc


@<TRIPOS>ATOM
      1 CAA        -13.4570     1.0380    -0.3140 c3         1 K9H      -0.089100
      2 OAB          5.1590     3.0670     0.6430 o          1 K9H      -0.953333
      3 OAC          4.2390    -1.9500    -1.1880 o          1 K9H      -0.953333
      4 OAD          6.5420     2.1670    -1.2950 o          1 K9H      -0.953333
      5 OAE          7.0100     1.3770     1.1170 o          1 K9H      -0.953333
      6 OAF          5.7610    -1.8420     0.8720 o          1 K9H      -0.953333
      7 OAG          6.6040    -1.0310    -1.4090 o          1 K9H      -0.953333
      8 CAH          2.5340    -1.7240     1.2670 ca         1 K9H       0.434200
      9 CAI          0.2870    -1.8990     0.8580 ca         1 K9H       0.240200
     10 CAJ          1.3430     0.2360     0.6690 ca         1 K9H      -0.174000
     11 CAK        -12.2590     0.0980    -0.2890 c3         1 K9H      -0.079400
     12 CAL        -10.9280     0.8400    -0.2690 c3         1 K9H      -0.081400
     13 CAM         -9.7190    -0.0870    -0.2380 c3         1 K9H      -0.077400
     14 CAN         -8.3900     0.6580    -0.2140 c3         1 K9H      -0.077400
     15 CAO         -7.1820    -0.2680    -0.1590 c3         1 K9H      -0.076400
     16 CAP         -5.8540     0.4780    -0.1350 c3         1 K9H      -0.075400
     17 CAQ         -4.6520    -0.4510    -0.0150 c3         1 K9H      -0.074400
     18 CAR         -3.3220     0.2950     0.0000 c3         1 K9H      -0.081400
     19 CAS         -2.1660    -0.6490     0.2540 c3         1 K9H       0.154400
     20 NAU          1.4470    -2.4670     1.2000 nb         1 K9H      -0.708000
     21 OAV         -0.9590     0.0950     0.2560 os         1 K9H      -0.337900
     22 CAW          2.5490    -0.3460     1.0120 ca         1 K9H      -0.032600
     23 CAX          0.1850    -0.5420     0.5840 ca         1 K9H      -0.047200
     24 CAY          4.7150     0.4950    -0.1030 c3         1 K9H      -0.326100
     25 PAZ          5.9680     1.8650     0.0980 p5         1 K9H       1.184200
     26 PBA          5.3910    -1.2040    -0.4830 p5         1 K9H       1.184200
     27 HAA        -14.4000     0.4900    -0.3270 hc         1 K9H       0.014700
     28 HAAA       -13.4640     1.6880     0.5630 hc         1 K9H       0.014700
     29 HAAB       -13.4350     1.6780    -1.1980 hc         1 K9H       0.014700
     30 HAH          3.4640    -2.2120     1.5310 h4         1 K9H       0.092100
     31 HAI         -0.5730    -2.5570     0.8180 h4         1 K9H      -0.056900
     32 HAJ          1.2820     1.3020     0.4760 ha         1 K9H       0.132000
     33 HAK        -12.3220    -0.5540     0.5880 hc         1 K9H       0.025700
     34 HAKA       -12.2920    -0.5630    -1.1600 hc         1 K9H       0.025700
     35 HAL        -10.8630     1.4920    -1.1480 hc         1 K9H       0.027700
     36 HALA       -10.8970     1.5050     0.6020 hc         1 K9H       0.027700
     37 HAM         -9.7860    -0.7380     0.6410 hc         1 K9H       0.028200
     38 HAMA        -9.7480    -0.7520    -1.1090 hc         1 K9H       0.028200
     39 HAN         -8.3170     1.3000    -1.1000 hc         1 K9H       0.031200
     40 HANA        -8.3680     1.3320     0.6490 hc         1 K9H       0.031200
     41 HAO         -7.2560    -0.9040     0.7310 hc         1 K9H       0.031200
     42 HAOA        -7.2030    -0.9470    -1.0180 hc         1 K9H       0.031200
     43 HAP         -5.7600     1.0850    -1.0420 hc         1 K9H       0.034700
     44 HAPA        -5.8480     1.1830     0.7040 hc         1 K9H       0.034700
     45 HAQ         -4.7490    -1.0430     0.9010 hc         1 K9H       0.031200
     46 HAQA        -4.6600    -1.1680    -0.8420 hc         1 K9H       0.031200
     47 HAR         -3.1780     0.8130    -0.9530 hc         1 K9H       0.045700
     48 HARA        -3.3400     1.0620     0.7810 hc         1 K9H       0.045700
     49 HAS         -2.3050    -1.1500     1.2200 h1         1 K9H       0.013700
     50 HASA        -2.1310    -1.4300    -0.5160 h1         1 K9H       0.013700
     51 HAT          3.5260     1.4920     1.3840 hc         1 K9H       0.043200
     52 HATA         4.3920     0.0830     1.9700 hc         1 K9H       0.043200
     53 HAY          4.0900     0.7820    -0.9630 hc         1 K9H       0.014700
     54 CAT          3.8040     0.4660     1.1340 c3         1 K9H       0.011900
@<TRIPOS>BOND
     1     1    11 1   
     2     1    27 1   
     3     1    28 1   
     4     1    29 1   
     5     2    25 1   
     6     3    26 1   
     7     4    25 1   
     8     5    25 1   
     9     6    26 1   
    10     7    26 1   
    11     8    20 ar  
    12     8    22 ar  
    13     8    30 1   
    14     9    20 ar  
    15     9    23 ar  
    16     9    31 1   
    17    10    22 ar  
    18    10    23 ar  
    19    10    32 1   
    20    11    12 1   
    21    11    33 1   
    22    11    34 1   
    23    12    13 1   
    24    12    35 1   
    25    12    36 1   
    26    13    14 1   
    27    13    37 1   
    28    13    38 1   
    29    14    15 1   
    30    14    39 1   
    31    14    40 1   
    32    15    16 1   
    33    15    41 1   
    34    15    42 1   
    35    16    17 1   
    36    16    43 1   
    37    16    44 1   
    38    17    18 1   
    39    17    45 1   
    40    17    46 1   
    41    18    19 1   
    42    18    47 1   
    43    18    48 1   
    44    19    21 1   
    45    19    49 1   
    46    19    50 1   
    47    21    23 1   
    48    22    54 1   
    49    24    25 1   
    50    24    26 1   
    51    24    53 1   
    52    24    54 1   
    53    51    54 1   
    54    52    54 1   
@<TRIPOS>SUBSTRUCTURE
     1 K9H         1 TEMP              0 ****  ****    0 ROOT
