@<TRIPOS>MOLECULE
K9I
   73    74     1     0     0
SMALL
abcg2


@<TRIPOS>ATOM
      1 C10          0.9540    52.6930    48.3040 c3         1 K9I      -0.100400
      2 C13         -2.7220    54.0800    48.1450 c3         1 K9I       0.179300
      3 C15         -4.1500    53.4460    48.1420 c3         1 K9I       0.007300
      4 C17         -5.1830    54.5860    48.1940 c3         1 K9I      -0.080100
      5 C20         -3.9570    50.5530    45.6120 ca         1 K9I      -0.089300
      6 C21         -4.3950    51.1740    44.4440 ca         1 K9I      -0.098000
      7 C22         -4.7890    52.5070    44.4770 ca         1 K9I      -0.111000
      8 C24         -3.3180    49.1880    45.5790 c3         1 K9I      -0.057100
      9 C02          5.4280    53.1010    47.3270 c3         1 K9I      -0.070400
     10 C03          4.3850    52.3770    46.4580 c3         1 K9I      -0.032500
     11 C04          4.9890    51.8980    45.1380 c3         1 K9I       0.162600
     12 C09          1.4120    51.8780    47.0990 c3         1 K9I       0.225500
     13 C11         -0.1900    53.6990    48.0700 c3         1 K9I       0.175300
     14 C12         -1.5780    53.0680    48.0790 c3         1 K9I      -0.094400
     15 C16         -4.3660    52.5780    49.3920 c3         1 K9I      -0.080100
     16 C18         -4.3070    52.6320    46.8530 ca         1 K9I      -0.071300
     17 C19         -3.9580    51.2820    46.8020 ca         1 K9I      -0.110000
     18 C23         -4.7250    53.2330    45.6610 ca         1 K9I      -0.105000
     19 C25         -1.8130    49.3070    45.8850 c3         1 K9I       0.170300
     20 C27         -1.1070    50.2410    44.9020 c3         1 K9I       0.119300
     21 C29          0.2700    50.6840    45.3610 c          1 K9I       0.573100
     22 O05          5.4170    53.0320    44.3770 oh         1 K9I      -0.674000
     23 O14         -2.6070    54.8910    49.3280 oh         1 K9I      -0.674000
     24 O26         -1.1480    48.0470    45.8500 oh         1 K9I      -0.649000
     25 O28         -1.0400    49.6840    43.6060 oh         1 K9I      -0.641000
     26 O30          1.2320    50.6840    44.6230 o          1 K9I      -0.493000
     27 O31          0.2480    51.1440    46.6030 os         1 K9I      -0.444100
     28 O32         -0.0440    54.4100    46.8400 os         1 K9I      -0.468000
     29 H1           0.6650    52.0270    49.1190 hc         1 K9I       0.059200
     30 H2           1.8390    53.2310    48.6450 hc         1 K9I       0.059200
     31 H3          -2.6650    54.7320    47.2680 h1         1 K9I       0.045700
     32 H4          -5.1410    55.0790    49.1630 hc         1 K9I       0.039533
     33 H5          -4.9970    55.3430    47.4310 hc         1 K9I       0.039533
     34 H6          -6.1900    54.1910    48.0490 hc         1 K9I       0.039533
     35 H7          -4.3960    50.6260    43.5100 ha         1 K9I       0.121000
     36 H8          -5.1260    52.9920    43.5690 ha         1 K9I       0.115000
     37 H9          -3.7570    48.5290    46.3330 hc         1 K9I       0.062200
     38 H10         -3.4540    48.7200    44.6030 hc         1 K9I       0.062200
     39 H11          5.6010    54.2630    49.1540 hc         1 K9I       0.030700
     40 H12          4.0790    54.5010    48.2880 hc         1 K9I       0.030700
     41 H13          4.3450    53.0220    49.2120 hc         1 K9I       0.030700
     42 H15          5.9240    53.8570    46.7150 hc         1 K9I       0.048200
     43 H16          3.6010    53.0960    46.2070 hc         1 K9I       0.060700
     44 H17          4.2360    51.3330    44.5800 h1         1 K9I       0.032200
     45 H18          5.8360    51.2310    45.3400 h1         1 K9I       0.032200
     46 H25          1.7110    52.5450    46.2950 h1         1 K9I       0.075700
     47 H26         -0.1320    54.4220    48.8930 h1         1 K9I       0.031700
     48 H27         -1.6880    52.4570    47.1880 hc         1 K9I       0.065700
     49 H28         -1.6370    52.4000    48.9400 hc         1 K9I       0.065700
     50 H29         -4.2710    53.1920    50.2870 hc         1 K9I       0.039533
     51 H30         -5.3710    52.1500    49.3780 hc         1 K9I       0.039533
     52 H31         -3.6550    51.7580    49.4790 hc         1 K9I       0.039533
     53 H32         -3.6170    50.7840    47.6990 ha         1 K9I       0.109000
     54 H33         -5.0020    54.2770    45.6440 ha         1 K9I       0.113000
     55 H34         -1.7040    49.7540    46.8750 h1         1 K9I       0.045700
     56 H35         -1.6900    51.1700    44.8740 h1         1 K9I       0.081700
     57 H39          5.7890    52.7130    43.5460 ho         1 K9I       0.444000
     58 H40         -2.0270    55.6350    49.1320 ho         1 K9I       0.440000
     59 H41         -1.4720    47.5170    46.5890 ho         1 K9I       0.440000
     60 H42         -0.1360    49.8320    43.2870 ho         1 K9I       0.471000
     61 C07          2.5290    50.9250    47.4550 c2         1 K9I      -0.140400
     62 C33          0.9980    55.3730    46.8470 c3         1 K9I       0.140900
     63 C06          3.8070    51.1940    47.1830 c2         1 K9I      -0.190200
     64 C08          2.1240    49.6680    48.1760 c3         1 K9I      -0.049900
     65 H14          6.1980    52.3780    47.6200 hc         1 K9I       0.048200
     66 C01          4.8310    53.7580    48.5680 c3         1 K9I      -0.089100
     67 H19          4.5490    50.4710    47.5180 ha         1 K9I       0.171000
     68 H22          3.0030    49.0970    48.4730 hc         1 K9I       0.044033
     69 H23          1.5370    49.8900    49.0710 hc         1 K9I       0.044033
     70 H24          1.5000    49.0330    47.5420 hc         1 K9I       0.044033
     71 H36          0.9440    55.9110    45.9010 h1         1 K9I       0.032033
     72 H37          0.8690    56.0810    47.6740 h1         1 K9I       0.032033
     73 H38          1.9850    54.9100    46.9340 h1         1 K9I       0.032033
@<TRIPOS>BOND
     1     1    12 1   
     2     1    13 1   
     3     1    29 1   
     4     1    30 1   
     5     2     3 1   
     6     2    14 1   
     7     2    23 1   
     8     2    31 1   
     9     3     4 1   
    10     3    15 1   
    11     3    16 1   
    12     4    32 1   
    13     4    33 1   
    14     4    34 1   
    15     5     6 ar  
    16     5     8 1   
    17     5    17 ar  
    18     6     7 ar  
    19     6    35 1   
    20     7    18 ar  
    21     7    36 1   
    22     8    19 1   
    23     8    37 1   
    24     8    38 1   
    25     9    10 1   
    26     9    42 1   
    27     9    65 1   
    28     9    66 1   
    29    10    11 1   
    30    10    43 1   
    31    10    63 1   
    32    11    22 1   
    33    11    44 1   
    34    11    45 1   
    35    12    27 1   
    36    12    46 1   
    37    12    61 1   
    38    13    14 1   
    39    13    28 1   
    40    13    47 1   
    41    14    48 1   
    42    14    49 1   
    43    15    50 1   
    44    15    51 1   
    45    15    52 1   
    46    16    17 ar  
    47    16    18 ar  
    48    17    53 1   
    49    18    54 1   
    50    19    20 1   
    51    19    24 1   
    52    19    55 1   
    53    20    21 1   
    54    20    25 1   
    55    20    56 1   
    56    21    26 2   
    57    21    27 1   
    58    22    57 1   
    59    23    58 1   
    60    24    59 1   
    61    25    60 1   
    62    28    62 1   
    63    39    66 1   
    64    40    66 1   
    65    41    66 1   
    66    61    63 2   
    67    61    64 1   
    68    62    71 1   
    69    62    72 1   
    70    62    73 1   
    71    63    67 1   
    72    64    68 1   
    73    64    69 1   
    74    64    70 1   
@<TRIPOS>SUBSTRUCTURE
     1 K9I         1 TEMP              0 ****  ****    0 ROOT
