@<TRIPOS>MOLECULE
K9I
   73    74     1     0     0
SMALL
No Charge or Current Charge


@<TRIPOS>ATOM
      1 C10          0.9950    52.8100    48.2090 c3         1 K9I      -0.100400
      2 C13         -2.7770    54.1910    48.1000 c3         1 K9I       0.179300
      3 C15         -4.2120    53.5210    48.1090 c3         1 K9I       0.007300
      4 C17         -5.2920    54.6510    48.1170 c3         1 K9I      -0.080100
      5 C20         -3.9590    50.4800    45.6860 ca         1 K9I      -0.089300
      6 C21         -4.5580    50.9870    44.5220 ca         1 K9I      -0.098000
      7 C22         -5.0570    52.2960    44.5070 ca         1 K9I      -0.111000
      8 C24         -3.2870    49.1090    45.6730 c3         1 K9I      -0.057100
      9 C02          5.6670    52.9790    47.5000 c3         1 K9I      -0.070400
     10 C03          4.4850    52.5190    46.6050 c3         1 K9I      -0.032500
     11 C04          4.8990    52.3050    45.1260 c3         1 K9I       0.162600
     12 C09          1.4100    51.9720    46.9670 c3         1 K9I       0.225500
     13 C11         -0.1650    53.8420    48.0500 c3         1 K9I       0.175300
     14 C12         -1.5770    53.2000    48.0310 c3         1 K9I      -0.094400
     15 C16         -4.4570    52.6880    49.4100 c3         1 K9I      -0.080100
     16 C18         -4.3750    52.6180    46.8460 ca         1 K9I      -0.071300
     17 C19         -3.8940    51.2840    46.8400 ca         1 K9I      -0.110000
     18 C23         -4.9520    53.1090    45.6470 ca         1 K9I      -0.105000
     19 C25         -1.7470    49.2140    45.8410 c3         1 K9I       0.170300
     20 C27         -1.0770    50.1500    44.7870 c3         1 K9I       0.119300
     21 C29          0.3270    50.6460    45.2470 c          1 K9I       0.573100
     22 O05          5.3190    53.5390    44.5270 oh         1 K9I      -0.674000
     23 O14         -2.6180    55.0360    49.2530 oh         1 K9I      -0.674000
     24 O26         -1.1600    47.9020    45.7500 oh         1 K9I      -0.649000
     25 O28         -1.0600    49.4730    43.5000 oh         1 K9I      -0.641000
     26 O30          1.3270    50.6380    44.5360 o          1 K9I      -0.493000
     27 O31          0.2610    51.2610    46.4760 os         1 K9I      -0.444100
     28 O32         -0.0060    54.5950    46.8300 os         1 K9I      -0.468000
     29 H1           0.7370    52.1290    49.0270 hc         1 K9I       0.059200
     30 H2           1.8830    53.3490    48.5590 hc         1 K9I       0.059200
     31 H3          -2.7250    54.8120    47.1950 h1         1 K9I       0.045700
     32 H4          -5.3110    55.1800    49.0770 hc         1 K9I       0.039533
     33 H5          -5.0960    55.4040    47.3460 hc         1 K9I       0.039533
     34 H6          -6.2940    54.2350    47.9530 hc         1 K9I       0.039533
     35 H7          -4.6100    50.3820    43.6190 ha         1 K9I       0.121000
     36 H8          -5.5050    52.6930    43.5990 ha         1 K9I       0.115000
     37 H9          -3.6960    48.4910    46.4820 hc         1 K9I       0.062200
     38 H10         -3.5140    48.5790    44.7390 hc         1 K9I       0.062200
     39 H11          6.1230    53.6500    49.5260 hc         1 K9I       0.030700
     40 H12          4.4860    54.0720    48.9810 hc         1 K9I       0.030700
     41 H13          4.8650    52.4010    49.4570 hc         1 K9I       0.030700
     42 H15          6.1220    53.8810    47.0720 hc         1 K9I       0.048200
     43 H16          3.7550    53.3360    46.6140 hc         1 K9I       0.060700
     44 H17          4.0400    51.8970    44.5750 h1         1 K9I       0.032200
     45 H18          5.7050    51.5600    45.0800 h1         1 K9I       0.032200
     46 H25          1.7540    52.6660    46.1900 h1         1 K9I       0.075700
     47 H26         -0.1140    54.5130    48.9170 h1         1 K9I       0.031700
     48 H27         -1.6710    52.6230    47.1090 hc         1 K9I       0.065700
     49 H28         -1.6410    52.4910    48.8620 hc         1 K9I       0.065700
     50 H29         -4.4800    53.3330    50.2960 hc         1 K9I       0.039533
     51 H30         -5.4220    52.1690    49.3560 hc         1 K9I       0.039533
     52 H31         -3.6840    51.9350    49.5890 hc         1 K9I       0.039533
     53 H32         -3.4120    50.8700    47.7190 ha         1 K9I       0.109000
     54 H33         -5.3210    54.1270    45.5710 ha         1 K9I       0.113000
     55 H34         -1.5600    49.6280    46.8400 h1         1 K9I       0.045700
     56 H35         -1.6700    51.0690    44.7140 h1         1 K9I       0.081700
     57 H39          5.5630    53.3370    43.5960 ho         1 K9I       0.444000
     58 H40         -1.9610    55.7230    49.0130 ho         1 K9I       0.440000
     59 H41         -1.5060    47.3750    46.5040 ho         1 K9I       0.440000
     60 H42         -0.8800    48.5290    43.7250 ho         1 K9I       0.471000
     61 C07          2.5360    50.9880    47.3230 c2         1 K9I      -0.140400
     62 C33          1.1040    55.5130    46.7920 c3         1 K9I       0.140900
     63 C06          3.8480    51.2470    47.1530 c2         1 K9I      -0.190200
     64 C08          2.0670    49.6790    47.9530 c3         1 K9I      -0.049900
     65 H14          6.4470    52.2070    47.5050 hc         1 K9I       0.048200
     66 C01          5.2570    53.2930    48.9550 c3         1 K9I      -0.089100
     67 H19          4.5820    50.4920    47.4430 ha         1 K9I       0.171000
     68 H22          2.9120    49.0720    48.2990 hc         1 K9I       0.044033
     69 H23          1.4230    49.8580    48.8220 hc         1 K9I       0.044033
     70 H24          1.5050    49.0640    47.2410 hc         1 K9I       0.044033
     71 H36          1.1010    56.0720    45.8470 h1         1 K9I       0.032033
     72 H37          1.0390    56.2370    47.6140 h1         1 K9I       0.032033
     73 H38          2.0630    54.9870    46.8670 h1         1 K9I       0.032033
@<TRIPOS>BOND
     1     1    12 1   
     2     1    13 1   
     3     1    29 1   
     4     1    30 1   
     5     2     3 1   
     6     2    14 1   
     7     2    23 1   
     8     2    31 1   
     9     3     4 1   
    10     3    15 1   
    11     3    16 1   
    12     4    32 1   
    13     4    33 1   
    14     4    34 1   
    15     5     6 ar  
    16     5     8 1   
    17     5    17 ar  
    18     6     7 ar  
    19     6    35 1   
    20     7    18 ar  
    21     7    36 1   
    22     8    19 1   
    23     8    37 1   
    24     8    38 1   
    25     9    10 1   
    26     9    42 1   
    27     9    65 1   
    28     9    66 1   
    29    10    11 1   
    30    10    43 1   
    31    10    63 1   
    32    11    22 1   
    33    11    44 1   
    34    11    45 1   
    35    12    27 1   
    36    12    46 1   
    37    12    61 1   
    38    13    14 1   
    39    13    28 1   
    40    13    47 1   
    41    14    48 1   
    42    14    49 1   
    43    15    50 1   
    44    15    51 1   
    45    15    52 1   
    46    16    17 ar  
    47    16    18 ar  
    48    17    53 1   
    49    18    54 1   
    50    19    20 1   
    51    19    24 1   
    52    19    55 1   
    53    20    21 1   
    54    20    25 1   
    55    20    56 1   
    56    21    26 2   
    57    21    27 1   
    58    22    57 1   
    59    23    58 1   
    60    24    59 1   
    61    25    60 1   
    62    28    62 1   
    63    39    66 1   
    64    40    66 1   
    65    41    66 1   
    66    61    63 2   
    67    61    64 1   
    68    62    71 1   
    69    62    72 1   
    70    62    73 1   
    71    63    67 1   
    72    64    68 1   
    73    64    69 1   
    74    64    70 1   
@<TRIPOS>SUBSTRUCTURE
     1 K9I         1 TEMP              0 ****  ****    0 ROOT
