@<TRIPOS>MOLECULE
K9J
   76    80     1     0     0
SMALL
No Charge or Current Charge


@<TRIPOS>ATOM
      1 C18         -4.6530    -1.7640    -1.7430 ca         1 K9J      -0.239000
      2 C13          3.8430    -3.0680    -1.0590 c6         1 K9J       0.091500
      3 C12          3.1550    -1.7010    -1.3280 c6         1 K9J       0.179300
      4 C17         -4.0170    -1.3460    -0.5600 ca         1 K9J       0.311000
      5 C16          3.5460    -1.0550     1.0460 c6         1 K9J       0.179300
      6 C15          4.2380    -2.4250     1.2930 c6         1 K9J       0.091500
      7 C10          1.5660    -0.1450    -0.1960 ca         1 K9J       0.384900
      8 C8           1.0270     2.0930    -0.1810 ca         1 K9J       0.391300
      9 C22         -4.7760    -1.2070     0.6320 ca         1 K9J      -0.068000
     10 N2          -2.6340    -1.0560    -0.5960 nh         1 K9J      -0.775400
     11 C5           0.2190    -0.4770    -0.4260 ca         1 K9J      -0.228300
     12 C6          -0.2900    -1.9240    -0.5170 c6         1 K9J      -0.003100
     13 C1          -1.6800    -2.0270    -1.1910 c6         1 K9J       0.179800
     14 C4          -0.6930     0.5920    -0.5100 ca         1 K9J       0.163300
     15 C19         -6.0240    -2.0430    -1.7510 ca         1 K9J       0.153100
     16 C20         -6.7790    -1.9060    -0.5810 ca         1 K9J      -0.162000
     17 C21         -6.1630    -1.4890     0.6120 ca         1 K9J       0.011000
     18 C3          -2.1990     0.3670    -0.7360 c6         1 K9J       0.124500
     19 N7          -0.2900     1.8700    -0.3910 nb         1 K9J      -0.286000
     20 N9           1.9640     1.1330    -0.0700 nb         1 K9J      -0.256000
     21 N11          2.5660    -1.1290    -0.0800 nh         1 K9J      -0.762300
     22 N14          4.8440    -2.9660     0.0400 n          1 K9J      -0.418800
     23 C23          6.2360    -3.0540    -0.2000 c          1 K9J       0.607100
     24 C24          7.2060    -2.9460     0.9960 c3         1 K9J      -0.153400
     25 O25          6.6590    -3.2470    -1.3330 o          1 K9J      -0.604100
     26 C26          8.6920    -3.2430     0.6910 c3         1 K9J      -0.077100
     27 C27         -6.9320    -1.3570     1.7840 ca         1 K9J      -0.116000
     28 C28         -6.3280    -0.9480     2.9840 ca         1 K9J      -0.091000
     29 C29         -4.9520    -0.6730     3.0150 ca         1 K9J      -0.129000
     30 C30         -4.1780    -0.8030     1.8490 ca         1 K9J      -0.073000
     31 O31         -6.6310    -2.4440    -2.9020 oh         1 K9J      -0.534100
     32 O32          1.4720     3.3900    -0.0370 os         1 K9J      -0.426300
     33 C33          0.7310     4.5230    -0.5510 c3         1 K9J       0.187300
     34 C34          1.3140     5.8220     0.0860 c3         1 K9J       0.164800
     35 N35          1.2410     5.9300     1.5740 n3         1 K9J      -0.700600
     36 C36          1.9840     7.1030     2.0860 c3         1 K9J       0.149600
     37 C37         -0.1390     5.8700     2.1110 c3         1 K9J       0.149600
     38 C38          0.8670     4.5220    -2.0910 c3         1 K9J      -0.118100
     39 H1          -4.0740    -1.8610    -2.6560 ha         1 K9J       0.112000
     40 H3           4.3050    -3.4310    -1.9870 h1         1 K9J       0.062950
     41 H4           3.9000    -1.0050    -1.7410 h1         1 K9J       0.057200
     42 H5           2.3800    -1.8400    -2.0950 h1         1 K9J       0.057200
     43 H6           3.0400    -0.7460     1.9720 h1         1 K9J       0.057200
     44 H7           4.3180    -0.3030     0.8250 h1         1 K9J       0.057200
     45 H8           4.9750    -2.3130     2.0970 h1         1 K9J       0.062950
     46 H9           3.4840    -3.1400     1.6530 h1         1 K9J       0.062950
     47 H10          0.4160    -2.5580    -1.0660 hc         1 K9J       0.058200
     48 H11         -0.3520    -2.3420     0.4970 hc         1 K9J       0.058200
     49 H12         -2.0560    -3.0550    -1.0780 h1         1 K9J       0.039700
     50 H13         -1.5720    -1.8320    -2.2680 h1         1 K9J       0.039700
     51 H14         -7.8440    -2.1230    -0.6010 ha         1 K9J       0.131000
     52 H15         -2.4510     0.7340    -1.7420 h1         1 K9J       0.066200
     53 H16         -2.7490     0.9960    -0.0200 h1         1 K9J       0.066200
     54 H17          7.0890    -1.9470     1.4320 hc         1 K9J       0.056200
     55 H18          6.8280    -3.5850     1.8030 hc         1 K9J       0.056200
     56 H19          9.2960    -3.1450     1.6010 hc         1 K9J       0.042033
     57 H20          8.8130    -4.2640     0.3080 hc         1 K9J       0.042033
     58 H21          9.0840    -2.5420    -0.0570 hc         1 K9J       0.042033
     59 H22         -7.9980    -1.5720     1.7670 ha         1 K9J       0.115000
     60 H23         -6.9250    -0.8470     3.8870 ha         1 K9J       0.112000
     61 H24         -4.4820    -0.3600     3.9460 ha         1 K9J       0.113000
     62 H25         -3.1130    -0.5920     1.9010 ha         1 K9J       0.128000
     63 H26         -5.9530    -2.4810    -3.6100 ho         1 K9J       0.464000
     64 H27         -0.3330     4.4580    -0.2890 h1         1 K9J       0.065700
     65 H28          2.3640     5.8960    -0.2290 h1         1 K9J       0.041700
     66 H29          0.7940     6.6790    -0.3650 h1         1 K9J       0.041700
     67 H31          1.5280     8.0390     1.7350 h1         1 K9J       0.030700
     68 H32          1.9880     7.1120     3.1840 h1         1 K9J       0.030700
     69 H33          3.0280     7.0800     1.7450 h1         1 K9J       0.030700
     70 H34         -0.6230     4.9190     1.8550 h1         1 K9J       0.030700
     71 H35         -0.1310     5.9490     3.2070 h1         1 K9J       0.030700
     72 H36         -0.7510     6.6900     1.7130 h1         1 K9J       0.030700
     73 H37          0.3660     5.3990    -2.5180 hc         1 K9J       0.048700
     74 H38          1.9220     4.5510    -2.3890 hc         1 K9J       0.048700
     75 H39          0.4070     3.6280    -2.5280 hc         1 K9J       0.048700
     76 H2           3.0760    -3.8020    -0.7730 h1         1 K9J       0.062950
@<TRIPOS>BOND
     1     1     4 ar  
     2     1    15 ar  
     3     1    39 1   
     4     2     3 1   
     5     2    22 1   
     6     2    40 1   
     7     2    76 1   
     8     3    21 1   
     9     3    41 1   
    10     3    42 1   
    11     4     9 ar  
    12     4    10 1   
    13     5     6 1   
    14     5    21 1   
    15     5    43 1   
    16     5    44 1   
    17     6    22 1   
    18     6    45 1   
    19     6    46 1   
    20     7    11 ar  
    21     7    20 ar  
    22     7    21 1   
    23     8    19 ar  
    24     8    20 ar  
    25     8    32 1   
    26     9    17 ar  
    27     9    30 ar  
    28    10    13 1   
    29    10    18 1   
    30    11    12 1   
    31    11    14 ar  
    32    12    13 1   
    33    12    47 1   
    34    12    48 1   
    35    13    49 1   
    36    13    50 1   
    37    14    18 1   
    38    14    19 ar  
    39    15    16 ar  
    40    15    31 1   
    41    16    17 ar  
    42    16    51 1   
    43    17    27 ar  
    44    18    52 1   
    45    18    53 1   
    46    22    23 1   
    47    23    24 1   
    48    23    25 2   
    49    24    26 1   
    50    24    54 1   
    51    24    55 1   
    52    26    56 1   
    53    26    57 1   
    54    26    58 1   
    55    27    28 ar  
    56    27    59 1   
    57    28    29 ar  
    58    28    60 1   
    59    29    30 ar  
    60    29    61 1   
    61    30    62 1   
    62    31    63 1   
    63    32    33 1   
    64    33    34 1   
    65    33    38 1   
    66    33    64 1   
    67    34    35 1   
    68    34    65 1   
    69    34    66 1   
    70    35    36 1   
    71    35    37 1   
    72    36    67 1   
    73    36    68 1   
    74    36    69 1   
    75    37    70 1   
    76    37    71 1   
    77    37    72 1   
    78    38    73 1   
    79    38    74 1   
    80    38    75 1   
@<TRIPOS>SUBSTRUCTURE
     1 K9J         1 TEMP              0 ****  ****    0 ROOT
