@<TRIPOS>MOLECULE
K9J
   76    80     1     0     0
SMALL
abcg2


@<TRIPOS>ATOM
      1 C18         -4.3480    -2.1940    -1.5870 ca         1 K9J      -0.239000
      2 C13          3.7120    -3.1740    -0.5470 c6         1 K9J       0.091500
      3 C12          2.9940    -1.9540    -1.0950 c6         1 K9J       0.179300
      4 C17         -3.8370    -1.4120    -0.5820 ca         1 K9J       0.311000
      5 C16          3.8180    -0.6060     0.7080 c6         1 K9J       0.179300
      6 C15          4.5440    -1.8190     1.2730 c6         1 K9J       0.091500
      7 C10          1.6190    -0.1430    -0.2120 ca         1 K9J       0.384900
      8 C8           0.9540     2.0190    -0.3130 ca         1 K9J       0.391300
      9 C22         -4.7220    -0.8260     0.3750 ca         1 K9J      -0.068000
     10 N2          -2.4580    -1.1650    -0.4550 nh         1 K9J      -0.775400
     11 C5           0.2920    -0.5700    -0.4460 ca         1 K9J      -0.228300
     12 C6          -0.1820    -1.9940    -0.3450 c6         1 K9J      -0.003100
     13 C1          -1.5520    -2.1700    -0.9770 c6         1 K9J       0.179800
     14 C4          -0.6230     0.4470    -0.6290 ca         1 K9J       0.163300
     15 C19         -5.7380    -2.4150    -1.7080 ca         1 K9J       0.153100
     16 C20         -6.6130    -1.8230    -0.8350 ca         1 K9J      -0.162000
     17 C21         -6.1190    -1.0230     0.2180 ca         1 K9J       0.011000
     18 C3          -2.0720     0.1660    -0.8940 c6         1 K9J       0.124500
     19 N7          -0.3010     1.7430    -0.5870 nb         1 K9J      -0.286000
     20 N9           1.9290     1.1420    -0.1270 nb         1 K9J      -0.256000
     21 N11          2.6340    -1.0560    -0.0030 nh         1 K9J      -0.762300
     22 N14          4.8730    -2.7620     0.2200 n          1 K9J      -0.418800
     23 C23          6.1230    -3.1330    -0.1450 c          1 K9J       0.607100
     24 C24          7.2790    -2.5850     0.6700 c3         1 K9J      -0.153400
     25 O25          6.3210    -3.8840    -1.0910 o          1 K9J      -0.604100
     26 C26          8.6300    -3.1030     0.2070 c3         1 K9J      -0.077100
     27 C27         -6.9990    -0.4250     1.1530 ca         1 K9J      -0.116000
     28 C28         -6.5180     0.3080     2.2040 ca         1 K9J      -0.091000
     29 C29         -5.1290     0.4660     2.3830 ca         1 K9J      -0.129000
     30 C30         -4.2540    -0.0920     1.4890 ca         1 K9J      -0.073000
     31 O31         -6.2300    -3.1920    -2.6940 oh         1 K9J      -0.534100
     32 O32          1.3490     3.2810    -0.2030 os         1 K9J      -0.426300
     33 C33          0.3910     4.3400    -0.3170 c3         1 K9J       0.187300
     34 C34          0.9790     5.5360     0.4150 c3         1 K9J       0.164800
     35 N35          1.3460     5.2770     1.7910 n3         1 K9J      -0.700600
     36 C36          2.0320     6.4190     2.3540 c3         1 K9J       0.149600
     37 C37          0.2200     4.8950     2.6160 c3         1 K9J       0.149600
     38 C38          0.1210     4.6730    -1.7730 c3         1 K9J      -0.118100
     39 H1          -3.6840    -2.6430    -2.3170 ha         1 K9J       0.112000
     40 H3           4.0210    -3.8210    -1.3630 h1         1 K9J       0.062950
     41 H4           3.6510    -1.4320    -1.8050 h1         1 K9J       0.057200
     42 H5           2.1150    -2.2660    -1.6540 h1         1 K9J       0.057200
     43 H6           3.5280     0.0460     1.5300 h1         1 K9J       0.057200
     44 H7           4.4970    -0.0400     0.0570 h1         1 K9J       0.057200
     45 H8           5.4370    -1.4890     1.7960 h1         1 K9J       0.062950
     46 H9           3.9020    -2.3150     2.0070 h1         1 K9J       0.062950
     47 H10          0.4950    -2.7000    -0.8230 hc         1 K9J       0.058200
     48 H11         -0.2240    -2.2820     0.7090 hc         1 K9J       0.058200
     49 H12         -1.9380    -3.1600    -0.7300 h1         1 K9J       0.039700
     50 H13         -1.4590    -2.1180    -2.0720 h1         1 K9J       0.039700
     51 H14         -7.6800    -1.9780    -0.9370 ha         1 K9J       0.131000
     52 H15         -2.2510     0.2970    -1.9750 h1         1 K9J       0.066200
     53 H16         -2.6690     0.9230    -0.3870 h1         1 K9J       0.066200
     54 H17          7.2670    -1.4920     0.6160 hc         1 K9J       0.056200
     55 H18          7.1310    -2.8280     1.7260 hc         1 K9J       0.056200
     56 H19          9.4190    -2.6690     0.8200 hc         1 K9J       0.042033
     57 H20          8.7000    -4.1870     0.2970 hc         1 K9J       0.042033
     58 H21          8.8300    -2.8390    -0.8300 hc         1 K9J       0.042033
     59 H22         -8.0660    -0.5650     1.0280 ha         1 K9J       0.115000
     60 H23         -7.2050     0.7550     2.9110 ha         1 K9J       0.112000
     61 H24         -4.7550     1.0180     3.2350 ha         1 K9J       0.113000
     62 H25         -3.1880     0.0090     1.6470 ha         1 K9J       0.128000
     63 H26         -5.5170    -3.5340    -3.2440 ho         1 K9J       0.464000
     64 H27         -0.5440     4.0310     0.1560 h1         1 K9J       0.065700
     65 H28          1.8740     5.8700    -0.1200 h1         1 K9J       0.041700
     66 H29          0.2430     6.3550     0.3320 h1         1 K9J       0.041700
     67 H31          1.4040     7.3230     2.4070 h1         1 K9J       0.030700
     68 H32          2.3700     6.1910     3.3660 h1         1 K9J       0.030700
     69 H33          2.9120     6.6630     1.7570 h1         1 K9J       0.030700
     70 H34         -0.2100     3.9480     2.2870 h1         1 K9J       0.030700
     71 H35          0.5550     4.7520     3.6440 h1         1 K9J       0.030700
     72 H36         -0.5870     5.6450     2.6280 h1         1 K9J       0.030700
     73 H37         -0.5960     5.4920    -1.8410 hc         1 K9J       0.048700
     74 H38          1.0340     4.9820    -2.2840 hc         1 K9J       0.048700
     75 H39         -0.3020     3.8210    -2.3020 hc         1 K9J       0.048700
     76 H2           3.0330    -3.7380     0.0990 h1         1 K9J       0.062950
@<TRIPOS>BOND
     1     1     4 ar  
     2     1    15 ar  
     3     1    39 1   
     4     2     3 1   
     5     2    22 1   
     6     2    40 1   
     7     2    76 1   
     8     3    21 1   
     9     3    41 1   
    10     3    42 1   
    11     4     9 ar  
    12     4    10 1   
    13     5     6 1   
    14     5    21 1   
    15     5    43 1   
    16     5    44 1   
    17     6    22 1   
    18     6    45 1   
    19     6    46 1   
    20     7    11 ar  
    21     7    20 ar  
    22     7    21 1   
    23     8    19 ar  
    24     8    20 ar  
    25     8    32 1   
    26     9    17 ar  
    27     9    30 ar  
    28    10    13 1   
    29    10    18 1   
    30    11    12 1   
    31    11    14 ar  
    32    12    13 1   
    33    12    47 1   
    34    12    48 1   
    35    13    49 1   
    36    13    50 1   
    37    14    18 1   
    38    14    19 ar  
    39    15    16 ar  
    40    15    31 1   
    41    16    17 ar  
    42    16    51 1   
    43    17    27 ar  
    44    18    52 1   
    45    18    53 1   
    46    22    23 1   
    47    23    24 1   
    48    23    25 2   
    49    24    26 1   
    50    24    54 1   
    51    24    55 1   
    52    26    56 1   
    53    26    57 1   
    54    26    58 1   
    55    27    28 ar  
    56    27    59 1   
    57    28    29 ar  
    58    28    60 1   
    59    29    30 ar  
    60    29    61 1   
    61    30    62 1   
    62    31    63 1   
    63    32    33 1   
    64    33    34 1   
    65    33    38 1   
    66    33    64 1   
    67    34    35 1   
    68    34    65 1   
    69    34    66 1   
    70    35    36 1   
    71    35    37 1   
    72    36    67 1   
    73    36    68 1   
    74    36    69 1   
    75    37    70 1   
    76    37    71 1   
    77    37    72 1   
    78    38    73 1   
    79    38    74 1   
    80    38    75 1   
@<TRIPOS>SUBSTRUCTURE
     1 K9J         1 TEMP              0 ****  ****    0 ROOT
