@<TRIPOS>MOLECULE
K9L
   45    48     1     0     0
SMALL
abcg2


@<TRIPOS>ATOM
      1 N01          6.5610    -2.3610    -0.5290 nc         1 K9L      -0.669000
      2 C02          5.5650    -1.6610    -0.0770 cd         1 K9L       0.431400
      3 N03          5.5120    -0.4290    -0.6630 na         1 K9L      -0.192000
      4 C04          6.5630    -0.3620    -1.5500 cd         1 K9L      -0.190000
      5 C05          7.1920    -1.5610    -1.4500 cc         1 K9L       0.227900
      6 C1          -4.6590    -0.7090    -0.5960 ca         1 K9L      -0.046300
      7 N11          3.6400     0.2800     0.4800 nb         1 K9L      -0.210000
      8 C12          4.5670     0.5700    -0.4100 ca         1 K9L       0.242500
      9 N13          4.7080     1.6930    -1.0860 nb         1 K9L      -0.194000
     10 C14          3.8020     2.6300    -0.8320 ca         1 K9L       0.137900
     11 C15          2.7780     2.4440     0.0780 ca         1 K9L      -0.234000
     12 C16          2.7310     1.2180     0.7330 ca         1 K9L       0.159300
     13 C17          1.6500     0.8800     1.7080 c3         1 K9L      -0.140700
     14 C18          0.6220    -0.0630     1.0810 c3         1 K9L       0.168800
     15 N19         -0.4270    -0.3670     2.0350 n7         1 K9L      -0.849400
     16 C2          -5.0150     0.4790    -1.2300 ca         1 K9L      -0.150000
     17 C21         -1.4690    -1.1730     1.4820 cx         1 K9L       0.100500
     18 C22         -2.8210    -1.0990     2.1200 cx         1 K9L      -0.113400
     19 C23         -2.5900    -0.4770     0.7760 cx         1 K9L      -0.113700
     20 C24         -3.2100    -1.0860    -0.4610 c3         1 K9L      -0.006100
     21 C3          -6.3480     0.8330    -1.3040 ca         1 K9L       0.171000
     22 C4          -7.3560     0.0530    -0.7720 ca         1 K9L      -0.152000
     23 C5          -6.9950    -1.1310    -0.1430 ca         1 K9L      -0.083000
     24 C6          -5.6630    -1.5090    -0.0550 ca         1 K9L      -0.123000
     25 F7          -6.6750     1.9820    -1.9230 f          1 K9L      -0.182000
     26 H02          4.8470    -1.9730     0.6640 h5         1 K9L       0.072100
     27 H04          6.7550     0.5090    -2.1510 h4         1 K9L       0.175000
     28 H05          8.0650    -1.8940    -1.9890 h4         1 K9L       0.041100
     29 H14          3.9010     3.5610    -1.3770 h4         1 K9L       0.033100
     30 H15          2.0500     3.2180     0.2710 ha         1 K9L       0.144000
     31 H17          2.0970     0.4010     2.5840 hc         1 K9L       0.069700
     32 H17A         1.1500     1.7890     2.0430 hc         1 K9L       0.069700
     33 H18          0.1650     0.4260     0.2160 h1         1 K9L       0.041200
     34 H18A         1.1340    -0.9590     0.7010 h1         1 K9L       0.041200
     35 HN19        -0.0280    -0.8390     2.8380 hn         1 K9L       0.420000
     36 H2          -4.2590     1.1220    -1.6660 ha         1 K9L       0.129000
     37 H21         -1.1840    -2.1440     1.0690 h1         1 K9L       0.057700
     38 H22         -3.4140    -2.0040     2.1740 hc         1 K9L       0.077200
     39 H22A        -2.9320    -0.4380     2.9710 hc         1 K9L       0.077200
     40 H23         -2.5270     0.6070     0.7660 hc         1 K9L       0.092700
     41 H24         -3.1160    -2.1750    -0.4170 hc         1 K9L       0.051700
     42 H24A        -2.6560    -0.7570    -1.3430 hc         1 K9L       0.051700
     43 H4          -8.3910     0.3570    -0.8500 ha         1 K9L       0.132000
     44 H5          -7.7650    -1.7650     0.2780 ha         1 K9L       0.117000
     45 H6          -5.3990    -2.4400     0.4330 ha         1 K9L       0.115000
@<TRIPOS>BOND
     1     1     2 2   
     2     1     5 1   
     3     2     3 1   
     4     2    26 1   
     5     3     4 1   
     6     3     8 1   
     7     4     5 2   
     8     4    27 1   
     9     5    28 1   
    10     6    16 ar  
    11     6    20 1   
    12     6    24 ar  
    13     7     8 ar  
    14     7    12 ar  
    15     8     9 ar  
    16     9    10 ar  
    17    10    11 ar  
    18    10    29 1   
    19    11    12 ar  
    20    11    30 1   
    21    12    13 1   
    22    13    14 1   
    23    13    31 1   
    24    13    32 1   
    25    14    15 1   
    26    14    33 1   
    27    14    34 1   
    28    15    17 1   
    29    15    35 1   
    30    16    21 ar  
    31    16    36 1   
    32    17    18 1   
    33    17    19 1   
    34    17    37 1   
    35    18    19 1   
    36    18    38 1   
    37    18    39 1   
    38    19    20 1   
    39    19    40 1   
    40    20    41 1   
    41    20    42 1   
    42    21    22 ar  
    43    21    25 1   
    44    22    23 ar  
    45    22    43 1   
    46    23    24 ar  
    47    23    44 1   
    48    24    45 1   
@<TRIPOS>SUBSTRUCTURE
     1 K9L         1 TEMP              0 ****  ****    0 ROOT
