@<TRIPOS>MOLECULE
K9L
   45    48     1     0     0
SMALL
No Charge or Current Charge


@<TRIPOS>ATOM
      1 N01          7.2470    -1.7140    -1.7230 nc         1 K9L      -0.669000
      2 C02          5.9620    -1.5430    -1.4200 cd         1 K9L       0.431400
      3 N03          5.8700    -0.6130    -0.4030 na         1 K9L      -0.192000
      4 C04          7.1050    -0.0210    -0.2170 cd         1 K9L      -0.190000
      5 C05          7.9430    -0.7850    -0.9860 cc         1 K9L       0.227900
      6 C1          -4.8840    -0.7230    -0.3450 ca         1 K9L      -0.046300
      7 N11          3.8060     0.1150     0.4620 nb         1 K9L      -0.210000
      8 C12          4.7730     0.2400    -0.4800 ca         1 K9L       0.242500
      9 N13          4.7030     1.1570    -1.4800 nb         1 K9L      -0.194000
     10 C14          3.6330     1.9730    -1.5390 ca         1 K9L       0.137900
     11 C15          2.6030     1.8930    -0.5970 ca         1 K9L      -0.234000
     12 C16          2.7330     0.9300     0.4110 ca         1 K9L       0.159300
     13 C17          1.6690     0.7500     1.4800 c3         1 K9L      -0.140700
     14 C18          0.5460    -0.1910     1.0150 c3         1 K9L       0.168800
     15 N19         -0.4750    -0.3110     2.0700 n7         1 K9L      -0.849400
     16 C2          -5.1130     0.3400    -1.2410 ca         1 K9L      -0.150000
     17 C21         -1.6060    -1.1450     1.7260 cx         1 K9L       0.100500
     18 C22         -2.9140    -0.8570     2.4210 cx         1 K9L      -0.113400
     19 C23         -2.7370    -0.4970     0.9650 cx         1 K9L      -0.113700
     20 C24         -3.4750    -1.2580    -0.1300 c3         1 K9L      -0.006100
     21 C3          -6.4130     0.8340    -1.4310 ca         1 K9L       0.171000
     22 C4          -7.4940     0.2770    -0.7320 ca         1 K9L      -0.152000
     23 C5          -7.2740    -0.7820     0.1660 ca         1 K9L      -0.083000
     24 C6          -5.9720    -1.2790     0.3580 ca         1 K9L      -0.123000
     25 F7          -6.6240     1.8530    -2.2920 f          1 K9L      -0.182000
     26 H02          5.1010    -2.0320    -1.8610 h5         1 K9L       0.072100
     27 H04          7.2920     0.8370     0.4180 h4         1 K9L       0.175000
     28 H05          9.0160    -0.6940    -1.0970 h4         1 K9L       0.041100
     29 H14          3.6070     2.6960    -2.3530 h4         1 K9L       0.033100
     30 H15          1.7400     2.5520    -0.6490 ha         1 K9L       0.144000
     31 H17          2.1190     0.3550     2.4000 hc         1 K9L       0.069700
     32 H17A         1.2380     1.7240     1.7390 hc         1 K9L       0.069700
     33 H18          0.1020     0.2110     0.0940 h1         1 K9L       0.041200
     34 H18A         0.9760    -1.1750     0.7780 h1         1 K9L       0.041200
     35 HN19        -0.0210    -0.6890     2.9120 hn         1 K9L       0.420000
     36 H2          -4.2850     0.7840    -1.7880 ha         1 K9L       0.129000
     37 H21         -1.3820    -2.1910     1.5030 h1         1 K9L       0.057700
     38 H22         -3.5500    -1.7030     2.6650 hc         1 K9L       0.077200
     39 H22A        -2.9440    -0.0430     3.1410 hc         1 K9L       0.077200
     40 H23         -2.6300     0.5610     0.7350 hc         1 K9L       0.092700
     41 H24         -3.5150    -2.3270     0.1140 hc         1 K9L       0.051700
     42 H24A        -2.9030    -1.1890    -1.0640 hc         1 K9L       0.051700
     43 H4          -8.4980     0.6660    -0.8850 ha         1 K9L       0.132000
     44 H5          -8.1090    -1.2160     0.7120 ha         1 K9L       0.117000
     45 H6          -5.8090    -2.0960     1.0560 ha         1 K9L       0.115000
@<TRIPOS>BOND
     1     1     2 2   
     2     1     5 1   
     3     2     3 1   
     4     2    26 1   
     5     3     4 1   
     6     3     8 1   
     7     4     5 2   
     8     4    27 1   
     9     5    28 1   
    10     6    16 ar  
    11     6    20 1   
    12     6    24 ar  
    13     7     8 ar  
    14     7    12 ar  
    15     8     9 ar  
    16     9    10 ar  
    17    10    11 ar  
    18    10    29 1   
    19    11    12 ar  
    20    11    30 1   
    21    12    13 1   
    22    13    14 1   
    23    13    31 1   
    24    13    32 1   
    25    14    15 1   
    26    14    33 1   
    27    14    34 1   
    28    15    17 1   
    29    15    35 1   
    30    16    21 ar  
    31    16    36 1   
    32    17    18 1   
    33    17    19 1   
    34    17    37 1   
    35    18    19 1   
    36    18    38 1   
    37    18    39 1   
    38    19    20 1   
    39    19    40 1   
    40    20    41 1   
    41    20    42 1   
    42    21    22 ar  
    43    21    25 1   
    44    22    23 ar  
    45    22    43 1   
    46    23    24 ar  
    47    23    44 1   
    48    24    45 1   
@<TRIPOS>SUBSTRUCTURE
     1 K9L         1 TEMP              0 ****  ****    0 ROOT
