@<TRIPOS>MOLECULE
K9M
   57    61     1     0     0
SMALL
abcg2


@<TRIPOS>ATOM
      1 C18         -4.1320     0.7460    -2.1640 ca         1 K9M      -0.155000
      2 N5           1.5770     0.9750     2.3260 nb         1 K9M      -0.239000
      3 C13          3.9560    -0.4390    -1.4520 c6         1 K9M       0.093000
      4 C12          3.0750     0.5320    -0.6880 c6         1 K9M       0.176300
      5 C17         -3.7780     0.2140    -0.9480 ca         1 K9M       0.267000
      6 C16          3.6210    -0.5430     1.3890 c6         1 K9M       0.176300
      7 C15          4.5070    -1.5230     0.6330 c6         1 K9M       0.093000
      8 N3          -0.6720     1.6800     2.3330 nb         1 K9M      -0.193000
      9 C10         -2.2140     1.2320     0.5460 c6         1 K9M       0.124500
     10 C8          -1.3950     0.2260    -1.4660 c6         1 K9M       0.179800
     11 C22         -4.7850    -0.3810    -0.1250 ca         1 K9M      -0.034000
     12 C7          -0.1020    -0.2510    -0.8260 c6         1 K9M      -0.013100
     13 C6           1.4380     0.4730     1.1040 ca         1 K9M       0.340900
     14 C1           0.1900     0.4860     0.4500 ca         1 K9M      -0.175300
     15 C4           0.5200     1.5480     2.8770 ca         1 K9M       0.143900
     16 C19         -5.4720     0.7360    -2.6020 ca         1 K9M      -0.093000
     17 C20         -6.4590     0.2200    -1.8110 ca         1 K9M      -0.109000
     18 C21         -6.1370    -0.3500    -0.5570 ca         1 K9M      -0.027000
     19 C2          -0.8340     1.1250     1.1280 ca         1 K9M       0.123300
     20 N9          -2.4520     0.2240    -0.4730 nh         1 K9M      -0.775400
     21 N11          2.5450    -0.1110     0.5130 nh         1 K9M      -0.758300
     22 N14          5.0140    -0.9230    -0.5860 n          1 K9M      -0.419800
     23 C23         -7.1370    -0.9140     0.2710 ca         1 K9M      -0.106000
     24 C24         -6.8140    -1.5040     1.4620 ca         1 K9M      -0.101000
     25 C25         -5.4660    -1.5720     1.8710 ca         1 K9M      -0.116000
     26 C26         -4.4780    -1.0280     1.0950 ca         1 K9M      -0.085000
     27 C27          6.3170    -0.6910    -0.8720 c          1 K9M       0.606100
     28 C28          7.3470    -1.1680     0.1370 c3         1 K9M      -0.152400
     29 O29          6.6600    -0.1290    -1.9030 o          1 K9M      -0.602100
     30 C30          8.7740    -0.8650    -0.2840 c3         1 K9M      -0.077100
     31 H1          -3.3800     1.1980    -2.7990 ha         1 K9M       0.112000
     32 H3           4.3830     0.0500    -2.3220 h1         1 K9M       0.063200
     33 H4           3.6650     1.4150    -0.4090 h1         1 K9M       0.054700
     34 H5           2.2700     0.8820    -1.3300 h1         1 K9M       0.054700
     35 H6           3.2050    -1.0460     2.2610 h1         1 K9M       0.054700
     36 H7           4.2260     0.3000     1.7470 h1         1 K9M       0.054700
     37 H8           5.3180    -1.8470     1.2780 h1         1 K9M       0.063200
     38 H9           3.9230    -2.4110     0.3740 h1         1 K9M       0.063200
     39 H10         -2.9400     1.1350     1.3530 h1         1 K9M       0.067200
     40 H11         -2.3350     2.2510     0.1420 h1         1 K9M       0.067200
     41 H12         -1.2410     1.2230    -1.9070 h1         1 K9M       0.041700
     42 H13         -1.6660    -0.4500    -2.2770 h1         1 K9M       0.041700
     43 H14         -0.1770    -1.3190    -0.6010 hc         1 K9M       0.062200
     44 H15          0.6940    -0.1510    -1.5600 hc         1 K9M       0.062200
     45 H16          0.6530     1.9530     3.8740 h5         1 K9M       0.049100
     46 H17         -5.7140     1.1650    -3.5650 ha         1 K9M       0.113000
     47 H18         -7.4910     0.2320    -2.1380 ha         1 K9M       0.115000
     48 H19         -8.1680    -0.8770    -0.0590 ha         1 K9M       0.112000
     49 H20         -7.5880    -1.9310     2.0870 ha         1 K9M       0.113000
     50 H21         -5.2120    -2.0660     2.7990 ha         1 K9M       0.114000
     51 H22         -3.4450    -1.1110     1.4050 ha         1 K9M       0.129000
     52 H23          7.1420    -0.7050     1.1060 hc         1 K9M       0.055200
     53 H24          7.2250    -2.2440     0.2930 hc         1 K9M       0.055200
     54 H25          9.0340    -1.3570    -1.2210 hc         1 K9M       0.042367
     55 H26          8.9400     0.2040    -0.4090 hc         1 K9M       0.042367
     56 H27          9.4650    -1.2210     0.4800 hc         1 K9M       0.042367
     57 H2           3.3560    -1.2870    -1.7980 h1         1 K9M       0.063200
@<TRIPOS>BOND
     1     1     5 ar  
     2     1    16 ar  
     3     1    31 1   
     4     2    13 ar  
     5     2    15 ar  
     6     3     4 1   
     7     3    22 1   
     8     3    32 1   
     9     3    57 1   
    10     4    21 1   
    11     4    33 1   
    12     4    34 1   
    13     5    11 ar  
    14     5    20 1   
    15     6     7 1   
    16     6    21 1   
    17     6    35 1   
    18     6    36 1   
    19     7    22 1   
    20     7    37 1   
    21     7    38 1   
    22     8    15 ar  
    23     8    19 ar  
    24     9    19 1   
    25     9    20 1   
    26     9    39 1   
    27     9    40 1   
    28    10    12 1   
    29    10    20 1   
    30    10    41 1   
    31    10    42 1   
    32    11    18 ar  
    33    11    26 ar  
    34    12    14 1   
    35    12    43 1   
    36    12    44 1   
    37    13    14 ar  
    38    13    21 1   
    39    14    19 ar  
    40    15    45 1   
    41    16    17 ar  
    42    16    46 1   
    43    17    18 ar  
    44    17    47 1   
    45    18    23 ar  
    46    22    27 1   
    47    23    24 ar  
    48    23    48 1   
    49    24    25 ar  
    50    24    49 1   
    51    25    26 ar  
    52    25    50 1   
    53    26    51 1   
    54    27    28 1   
    55    27    29 2   
    56    28    30 1   
    57    28    52 1   
    58    28    53 1   
    59    30    54 1   
    60    30    55 1   
    61    30    56 1   
@<TRIPOS>SUBSTRUCTURE
     1 K9M         1 TEMP              0 ****  ****    0 ROOT
