@<TRIPOS>MOLECULE
K9M
   57    61     1     0     0
SMALL
No Charge or Current Charge


@<TRIPOS>ATOM
      1 C18         -4.4410     0.9510    -2.0280 ca         1 K9M      -0.155000
      2 N5           1.7160     1.6630     2.0740 nb         1 K9M      -0.239000
      3 C13          4.0930    -0.1930    -1.5480 c6         1 K9M       0.093000
      4 C12          3.2800     0.8660    -0.7540 c6         1 K9M       0.176300
      5 C17         -3.9240     0.3320    -0.8720 ca         1 K9M       0.267000
      6 C16          3.4590    -0.5510     1.2870 c6         1 K9M       0.176300
      7 C15          4.2780    -1.5950     0.4760 c6         1 K9M       0.093000
      8 N3          -0.5950     2.3350     2.1630 nb         1 K9M      -0.193000
      9 C10         -2.3000     1.6070     0.5530 c6         1 K9M       0.124500
     10 C8          -1.4930     0.4540    -1.5030 c6         1 K9M       0.179800
     11 C22         -4.7670    -0.5150    -0.1020 ca         1 K9M      -0.034000
     12 C7          -0.1690     0.0250    -0.8280 c6         1 K9M      -0.013100
     13 C6           1.4670     0.9410     0.9630 ca         1 K9M       0.340900
     14 C1           0.1730     0.8810     0.4010 ca         1 K9M      -0.175300
     15 C4           0.6740     2.3250     2.6150 ca         1 K9M       0.143900
     16 C19         -5.7720     0.7420    -2.4220 ca         1 K9M      -0.093000
     17 C20         -6.6050    -0.0900    -1.6610 ca         1 K9M      -0.109000
     18 C21         -6.1100    -0.7190    -0.5050 ca         1 K9M      -0.027000
     19 C2          -0.8460     1.6060     1.0560 ca         1 K9M       0.123300
     20 N9          -2.5820     0.5850    -0.4990 nh         1 K9M      -0.775400
     21 N11          2.5600     0.2510     0.4020 nh         1 K9M      -0.758300
     22 N14          5.0120    -0.9560    -0.6560 n          1 K9M      -0.419800
     23 C23         -6.9570    -1.5550     0.2480 ca         1 K9M      -0.106000
     24 C24         -6.4760    -2.1960     1.4020 ca         1 K9M      -0.101000
     25 C25         -5.1450    -2.0060     1.8040 ca         1 K9M      -0.116000
     26 C26         -4.2940    -1.1730     1.0580 ca         1 K9M      -0.085000
     27 C27          6.4160    -0.7940    -0.7070 c          1 K9M       0.606100
     28 C28          7.2970    -1.6280     0.2470 c3         1 K9M      -0.152400
     29 O29          6.9230    -0.0300    -1.5190 o          1 K9M      -0.602100
     30 C30          8.8220    -1.5460     0.0060 c3         1 K9M      -0.077100
     31 H1          -3.8090     1.6080    -2.6180 ha         1 K9M       0.112000
     32 H3           4.6450     0.3050    -2.3570 h1         1 K9M       0.063200
     33 H4           3.9680     1.6440    -0.3920 h1         1 K9M       0.054700
     34 H5           2.5700     1.3540    -1.4370 h1         1 K9M       0.054700
     35 H6           2.8690    -1.0830     2.0470 h1         1 K9M       0.054700
     36 H7           4.1570     0.1140     1.8160 h1         1 K9M       0.054700
     37 H8           4.9500    -2.1300     1.1580 h1         1 K9M       0.063200
     38 H9           3.5850    -2.3440     0.0660 h1         1 K9M       0.063200
     39 H10         -2.9610     1.4430     1.4180 h1         1 K9M       0.067200
     40 H11         -2.5270     2.6110     0.1650 h1         1 K9M       0.067200
     41 H12         -1.3410     1.4150    -2.0160 h1         1 K9M       0.041700
     42 H13         -1.7610    -0.2900    -2.2680 h1         1 K9M       0.041700
     43 H14         -0.2480    -1.0250    -0.5160 hc         1 K9M       0.062200
     44 H15          0.6350     0.0630    -1.5730 hc         1 K9M       0.062200
     45 H16          0.8790     2.9100     3.5100 h5         1 K9M       0.049100
     46 H17         -6.1580     1.2290    -3.3150 ha         1 K9M       0.113000
     47 H18         -7.6360    -0.2460    -1.9720 ha         1 K9M       0.115000
     48 H19         -7.9880    -1.7110    -0.0600 ha         1 K9M       0.112000
     49 H20         -7.1330    -2.8410     1.9800 ha         1 K9M       0.113000
     50 H21         -4.7700    -2.5060     2.6950 ha         1 K9M       0.114000
     51 H22         -3.2650    -1.0480     1.3850 ha         1 K9M       0.129000
     52 H23          7.0480    -1.3360     1.2740 hc         1 K9M       0.055200
     53 H24          6.9440    -2.6650     0.2210 hc         1 K9M       0.055200
     54 H25          9.0740    -1.8930    -1.0030 hc         1 K9M       0.042367
     55 H26          9.1790    -0.5150     0.1190 hc         1 K9M       0.042367
     56 H27          9.3580    -2.1730     0.7280 hc         1 K9M       0.042367
     57 H2           3.3950    -0.8960    -2.0230 h1         1 K9M       0.063200
@<TRIPOS>BOND
     1     1     5 ar  
     2     1    16 ar  
     3     1    31 1   
     4     2    13 ar  
     5     2    15 ar  
     6     3     4 1   
     7     3    22 1   
     8     3    32 1   
     9     3    57 1   
    10     4    21 1   
    11     4    33 1   
    12     4    34 1   
    13     5    11 ar  
    14     5    20 1   
    15     6     7 1   
    16     6    21 1   
    17     6    35 1   
    18     6    36 1   
    19     7    22 1   
    20     7    37 1   
    21     7    38 1   
    22     8    15 ar  
    23     8    19 ar  
    24     9    19 1   
    25     9    20 1   
    26     9    39 1   
    27     9    40 1   
    28    10    12 1   
    29    10    20 1   
    30    10    41 1   
    31    10    42 1   
    32    11    18 ar  
    33    11    26 ar  
    34    12    14 1   
    35    12    43 1   
    36    12    44 1   
    37    13    14 ar  
    38    13    21 1   
    39    14    19 ar  
    40    15    45 1   
    41    16    17 ar  
    42    16    46 1   
    43    17    18 ar  
    44    17    47 1   
    45    18    23 ar  
    46    22    27 1   
    47    23    24 ar  
    48    23    48 1   
    49    24    25 ar  
    50    24    49 1   
    51    25    26 ar  
    52    25    50 1   
    53    26    51 1   
    54    27    28 1   
    55    27    29 2   
    56    28    30 1   
    57    28    52 1   
    58    28    53 1   
    59    30    54 1   
    60    30    55 1   
    61    30    56 1   
@<TRIPOS>SUBSTRUCTURE
     1 K9M         1 TEMP              0 ****  ****    0 ROOT
