@<TRIPOS>MOLECULE
K9P
   45    47     1     0     0
SMALL
No Charge or Current Charge


@<TRIPOS>ATOM
      1 O            2.2150    -2.3500    -1.4350 o          1 K9P      -0.587100
      2 C5           1.6840    -1.3510    -0.9570 c          1 K9P       0.614100
      3 C4           2.5430    -0.1210    -0.6010 c3         1 K9P      -0.151400
      4 C3           4.0100    -0.4400    -0.2190 c3         1 K9P      -0.068400
      5 C2           4.8140     0.8190     0.1710 c3         1 K9P      -0.078400
      6 C1           6.2780     0.5080     0.5540 c3         1 K9P      -0.074400
      7 C            7.0800     1.7640     0.9440 c3         1 K9P      -0.089100
      8 N            0.2980    -1.3540    -0.6590 n          1 K9P      -0.227400
      9 C10         -0.6110    -0.2620    -0.5920 ca         1 K9P       0.026000
     10 C11         -0.4010     1.1140    -0.7850 ca         1 K9P      -0.250000
     11 C12         -1.4790     1.9970    -0.6100 ca         1 K9P       0.185100
     12 O1          -1.2680     3.3310    -0.8140 oh         1 K9P      -0.529100
     13 C13         -2.7590     1.5090    -0.2440 ca         1 K9P      -0.084000
     14 C18         -2.9480     0.1180    -0.0440 ca         1 K9P       0.043000
     15 C9          -1.8450    -0.7500    -0.2050 ca         1 K9P      -0.172300
     16 C7          -1.8180    -2.2650    -0.0060 c5         1 K9P      -0.018400
     17 C8          -1.9240    -2.6720     1.4830 c3         1 K9P      -0.085100
     18 C6          -0.4200    -2.6530    -0.6370 c5         1 K9P       0.094000
     19 C17         -4.2260    -0.3710     0.3000 ca         1 K9P      -0.121000
     20 C16         -5.3060     0.5120     0.4600 ca         1 K9P      -0.084000
     21 C15         -5.1190     1.8890     0.2740 ca         1 K9P      -0.134000
     22 C14         -3.8540     2.3880    -0.0790 ca         1 K9P      -0.061000
     23 H41C         2.5250     0.5490    -1.4680 hc         1 K9P       0.061200
     24 H42C         2.0470     0.4410     0.1980 hc         1 K9P       0.061200
     25 H31C         4.0170    -1.1480     0.6190 hc         1 K9P       0.056200
     26 H32C         4.5070    -0.9360    -1.0630 hc         1 K9P       0.056200
     27 H21C         4.8040     1.5280    -0.6670 hc         1 K9P       0.034200
     28 H22C         4.3200     1.3150     1.0160 hc         1 K9P       0.034200
     29 H11C         6.2920    -0.1990     1.3930 hc         1 K9P       0.040200
     30 H12C         6.7770     0.0140    -0.2890 hc         1 K9P       0.040200
     31 HC1          8.1090     1.4940     1.2060 hc         1 K9P       0.031367
     32 HC2          7.1140     2.4770     0.1110 hc         1 K9P       0.031367
     33 HC3          6.6250     2.2620     1.8090 hc         1 K9P       0.031367
     34 H61C        -0.5400    -3.0370    -1.6580 h1         1 K9P       0.065200
     35 H62C         0.1100    -3.4100    -0.0430 h1         1 K9P       0.065200
     36 H11          0.5560     1.5080    -1.0980 ha         1 K9P       0.120000
     37 H1          -0.3280     3.4580    -1.0590 ho         1 K9P       0.468000
     38 H14         -3.7350     3.4590    -0.2230 ha         1 K9P       0.126000
     39 H17         -4.3970    -1.4340     0.4380 ha         1 K9P       0.116000
     40 H7          -2.6310    -2.7680    -0.5420 hc         1 K9P       0.065700
     41 H81C        -2.8770    -2.3600     1.9240 hc         1 K9P       0.039367
     42 H82C        -1.8470    -3.7600     1.5980 hc         1 K9P       0.039367
     43 H83C        -1.1210    -2.2150     2.0740 hc         1 K9P       0.039367
     44 H16         -6.2880     0.1270     0.7260 ha         1 K9P       0.113000
     45 H15         -5.9570     2.5730     0.3980 ha         1 K9P       0.115000
@<TRIPOS>BOND
     1     1     2 2   
     2     2     3 1   
     3     2     8 1   
     4     3     4 1   
     5     3    23 1   
     6     3    24 1   
     7     4     5 1   
     8     4    25 1   
     9     4    26 1   
    10     5     6 1   
    11     5    27 1   
    12     5    28 1   
    13     6     7 1   
    14     6    29 1   
    15     6    30 1   
    16     7    31 1   
    17     7    32 1   
    18     7    33 1   
    19     8     9 1   
    20     8    18 1   
    21     9    10 ar  
    22     9    15 ar  
    23    10    11 ar  
    24    10    36 1   
    25    11    12 1   
    26    11    13 ar  
    27    12    37 1   
    28    13    14 ar  
    29    13    22 ar  
    30    14    15 ar  
    31    14    19 ar  
    32    15    16 1   
    33    16    17 1   
    34    16    18 1   
    35    16    40 1   
    36    17    41 1   
    37    17    42 1   
    38    17    43 1   
    39    18    34 1   
    40    18    35 1   
    41    19    20 ar  
    42    19    39 1   
    43    20    21 ar  
    44    20    44 1   
    45    21    22 ar  
    46    21    45 1   
    47    22    38 1   
@<TRIPOS>SUBSTRUCTURE
     1 K9P         1 TEMP              0 ****  ****    0 ROOT
