@<TRIPOS>MOLECULE
K9P
   45    47     1     0     0
SMALL
abcg2


@<TRIPOS>ATOM
      1 O            2.2280    -2.5130    -0.9970 o          1 K9P      -0.587100
      2 C5           1.6780    -1.4500    -0.7530 c          1 K9P       0.614100
      3 C4           2.4730    -0.1960    -0.4720 c3         1 K9P      -0.151400
      4 C3           3.9260    -0.4800    -0.1150 c3         1 K9P      -0.068400
      5 C2           4.6930     0.8040     0.1740 c3         1 K9P      -0.078400
      6 C1           6.1540     0.5550     0.5290 c3         1 K9P      -0.074400
      7 C            6.9160     1.8400     0.8220 c3         1 K9P      -0.089100
      8 N            0.3180    -1.3930    -0.6990 n          1 K9P      -0.227400
      9 C10         -0.5630    -0.3120    -0.5480 ca         1 K9P       0.026000
     10 C11         -0.3200     1.0600    -0.7470 ca         1 K9P      -0.250000
     11 C12         -1.3560     1.9470    -0.5720 ca         1 K9P       0.185100
     12 O1          -1.1980     3.2710    -0.7420 oh         1 K9P      -0.529100
     13 C13         -2.6630     1.5080    -0.2180 ca         1 K9P      -0.084000
     14 C18         -2.8890     0.1130    -0.0570 ca         1 K9P       0.043000
     15 C9          -1.8160    -0.7780    -0.2310 ca         1 K9P      -0.172300
     16 C7          -1.7910    -2.2730    -0.0700 c5         1 K9P      -0.018400
     17 C8          -1.7960    -2.6890     1.4010 c3         1 K9P      -0.085100
     18 C6          -0.4750    -2.6270    -0.7730 c5         1 K9P       0.094000
     19 C17         -4.1970    -0.3250     0.2690 ca         1 K9P      -0.121000
     20 C16         -5.2170     0.5720     0.4340 ca         1 K9P      -0.084000
     21 C15         -4.9860     1.9530     0.2800 ca         1 K9P      -0.134000
     22 C14         -3.7360     2.4100    -0.0410 ca         1 K9P      -0.061000
     23 H41C         2.4420     0.4420    -1.3620 hc         1 K9P       0.061200
     24 H42C         1.9980     0.3740     0.3300 hc         1 K9P       0.061200
     25 H31C         3.9720    -1.1350     0.7600 hc         1 K9P       0.056200
     26 H32C         4.4120    -1.0190    -0.9320 hc         1 K9P       0.056200
     27 H21C         4.6390     1.4660    -0.6970 hc         1 K9P       0.034200
     28 H22C         4.2090     1.3440     0.9960 hc         1 K9P       0.034200
     29 H11C         6.2070    -0.1100     1.3960 hc         1 K9P       0.040200
     30 H12C         6.6400     0.0210    -0.2930 hc         1 K9P       0.040200
     31 HC1          7.9620     1.6420     1.0580 hc         1 K9P       0.031367
     32 HC2          6.8920     2.5150    -0.0350 hc         1 K9P       0.031367
     33 HC3          6.4820     2.3720     1.6710 hc         1 K9P       0.031367
     34 H61C        -0.6430    -2.8930    -1.8190 h1         1 K9P       0.065200
     35 H62C         0.0520    -3.4490    -0.2930 h1         1 K9P       0.065200
     36 H11          0.6430     1.4330    -1.0610 ha         1 K9P       0.120000
     37 H1          -0.2860     3.4780    -0.9730 ho         1 K9P       0.468000
     38 H14         -3.5720     3.4730    -0.1600 ha         1 K9P       0.126000
     39 H17         -4.3880    -1.3840     0.3860 ha         1 K9P       0.116000
     40 H7          -2.6250    -2.7540    -0.5840 hc         1 K9P       0.065700
     41 H81C        -2.6940    -2.3390     1.9100 hc         1 K9P       0.039367
     42 H82C        -1.7590    -3.7750     1.4980 hc         1 K9P       0.039367
     43 H83C        -0.9330    -2.2730     1.9260 hc         1 K9P       0.039367
     44 H16         -6.2090     0.2190     0.6850 ha         1 K9P       0.113000
     45 H15         -5.8000     2.6530     0.4140 ha         1 K9P       0.115000
@<TRIPOS>BOND
     1     1     2 2   
     2     2     3 1   
     3     2     8 1   
     4     3     4 1   
     5     3    23 1   
     6     3    24 1   
     7     4     5 1   
     8     4    25 1   
     9     4    26 1   
    10     5     6 1   
    11     5    27 1   
    12     5    28 1   
    13     6     7 1   
    14     6    29 1   
    15     6    30 1   
    16     7    31 1   
    17     7    32 1   
    18     7    33 1   
    19     8     9 1   
    20     8    18 1   
    21     9    10 ar  
    22     9    15 ar  
    23    10    11 ar  
    24    10    36 1   
    25    11    12 1   
    26    11    13 ar  
    27    12    37 1   
    28    13    14 ar  
    29    13    22 ar  
    30    14    15 ar  
    31    14    19 ar  
    32    15    16 1   
    33    16    17 1   
    34    16    18 1   
    35    16    40 1   
    36    17    41 1   
    37    17    42 1   
    38    17    43 1   
    39    18    34 1   
    40    18    35 1   
    41    19    20 ar  
    42    19    39 1   
    43    20    21 ar  
    44    20    44 1   
    45    21    22 ar  
    46    21    45 1   
    47    22    38 1   
@<TRIPOS>SUBSTRUCTURE
     1 K9P         1 TEMP              0 ****  ****    0 ROOT
