@<TRIPOS>MOLECULE
K9Q
   50    52     1     0     0
SMALL
abcg2


@<TRIPOS>ATOM
      1 C1          -2.6830    -3.1990     0.3690 c3         1 K9Q       0.127800
      2 C2           6.6780     2.0670    -0.5310 ca         1 K9Q      -0.107000
      3 C3           6.3470     1.7080     0.7690 ca         1 K9Q      -0.111500
      4 C4           5.8770     1.6400    -1.5820 ca         1 K9Q      -0.111500
      5 C5           5.2260     0.9290     1.0150 ca         1 K9Q      -0.099000
      6 C6           4.7550     0.8620    -1.3350 ca         1 K9Q      -0.099000
      7 C7           2.8470    -1.3600    -0.6420 ca         1 K9Q      -0.096500
      8 C8           2.4320    -0.1280     1.3650 ca         1 K9Q      -0.096500
      9 C9           1.7320    -2.1430    -0.3890 ca         1 K9Q      -0.101500
     10 C10          1.3170    -0.9140     1.6130 ca         1 K9Q      -0.101500
     11 C11          4.4110     0.4940    -0.0320 cp         1 K9Q      -0.034000
     12 C12          3.2180    -0.3360     0.2320 cp         1 K9Q      -0.030000
     13 C13          0.9490    -1.9350     0.7430 ca         1 K9Q      -0.073300
     14 C14         -2.1720     0.0580    -0.2630 c          1 K9Q       0.595100
     15 C15         -4.3430     0.9950     0.5690 c5         1 K9Q      -0.096400
     16 C16         -4.0660     2.9290    -0.7520 c5         1 K9Q       0.110800
     17 C17         -2.8310     1.2690     0.3890 c5         1 K9Q       0.075500
     18 C18         -4.9670     1.7010    -0.6260 c5         1 K9Q       0.135300
     19 C19         -0.2780    -2.7630     0.9900 c3         1 K9Q      -0.038100
     20 C20         -1.4910    -2.2570     0.2020 c3         1 K9Q       0.104700
     21 N21         -3.8590    -2.6950    -0.3120 n8         1 K9Q      -1.003200
     22 N22         -2.7190     2.4610    -0.4510 n7         1 K9Q      -0.833400
     23 N23         -1.8300    -0.9110     0.5990 ns         1 K9Q      -0.473900
     24 O24         -1.9960    -0.0060    -1.4710 o          1 K9Q      -0.616100
     25 O25         -6.3260     1.9740    -0.3900 oh         1 K9Q      -0.649000
     26 H1          -2.3640    -4.1970     0.0360 h1         1 K9Q       0.031200
     27 H2          -2.9170    -3.2910     1.4350 h1         1 K9Q       0.031200
     28 H4           6.9690     2.0270     1.5960 ha         1 K9Q       0.112500
     29 H5           6.1220     1.9180    -2.5990 ha         1 K9Q       0.112500
     30 H6           4.9940     0.6410     2.0330 ha         1 K9Q       0.113500
     31 H7           4.1300     0.5550    -2.1640 ha         1 K9Q       0.113500
     32 H8           3.4470    -1.5660    -1.5200 ha         1 K9Q       0.115000
     33 H9           2.6790     0.6670     2.0580 ha         1 K9Q       0.115000
     34 H10          1.4770    -2.9370    -1.0820 ha         1 K9Q       0.108500
     35 H11          0.7250    -0.7280     2.5010 ha         1 K9Q       0.108500
     36 H12         -4.5760    -0.0700     0.6180 hc         1 K9Q       0.071200
     37 H13         -4.6990     1.4640     1.4900 hc         1 K9Q       0.071200
     38 H14         -4.0980     3.3970    -1.7380 h1         1 K9Q       0.056700
     39 H15         -4.3890     3.6810    -0.0220 h1         1 K9Q       0.056700
     40 H16         -2.3660     1.4350     1.3670 h1         1 K9Q       0.076700
     41 H17         -4.8410     1.0750    -1.5210 h1         1 K9Q       0.043700
     42 H18         -0.0950    -3.8020     0.7030 hc         1 K9Q       0.049700
     43 H19         -0.5170    -2.7710     2.0580 hc         1 K9Q       0.049700
     44 H20         -1.2200    -2.2190    -0.8550 h1         1 K9Q       0.085700
     45 H21         -3.7000    -2.6820    -1.3120 hn         1 K9Q       0.402000
     46 H22         -4.6330    -3.3290    -0.1610 hn         1 K9Q       0.402000
     47 H24         -2.2550     2.2030    -1.3130 hn         1 K9Q       0.433000
     48 H26         -2.0740    -0.7740     1.5690 hn         1 K9Q       0.306500
     49 H27         -6.7050     2.3320    -1.1980 ho         1 K9Q       0.444000
     50 H3           7.5540     2.6730    -0.7230 ha         1 K9Q       0.112000
@<TRIPOS>BOND
     1     1    20 1   
     2     1    21 1   
     3     1    26 1   
     4     1    27 1   
     5     2     3 ar  
     6     2     4 ar  
     7     2    50 1   
     8     3     5 ar  
     9     3    28 1   
    10     4     6 ar  
    11     4    29 1   
    12     5    11 ar  
    13     5    30 1   
    14     6    11 ar  
    15     6    31 1   
    16     7     9 ar  
    17     7    12 ar  
    18     7    32 1   
    19     8    10 ar  
    20     8    12 ar  
    21     8    33 1   
    22     9    13 ar  
    23     9    34 1   
    24    10    13 ar  
    25    10    35 1   
    26    11    12 1   
    27    13    19 1   
    28    14    17 1   
    29    14    23 1   
    30    14    24 2   
    31    15    17 1   
    32    15    18 1   
    33    15    36 1   
    34    15    37 1   
    35    16    18 1   
    36    16    22 1   
    37    16    38 1   
    38    16    39 1   
    39    17    22 1   
    40    17    40 1   
    41    18    25 1   
    42    18    41 1   
    43    19    20 1   
    44    19    42 1   
    45    19    43 1   
    46    20    23 1   
    47    20    44 1   
    48    21    45 1   
    49    21    46 1   
    50    22    47 1   
    51    23    48 1   
    52    25    49 1   
@<TRIPOS>SUBSTRUCTURE
     1 K9Q         1 TEMP              0 ****  ****    0 ROOT
