@<TRIPOS>MOLECULE
K9Q
   50    52     1     0     0
SMALL
No Charge or Current Charge


@<TRIPOS>ATOM
      1 C1          -2.7910    -3.8190     0.6970 c3         1 K9Q       0.127800
      2 C2           5.9460     2.6350    -0.7960 ca         1 K9Q      -0.107000
      3 C3           5.7450     2.2210     0.5300 ca         1 K9Q      -0.111500
      4 C4           5.1310     2.1230    -1.8180 ca         1 K9Q      -0.111500
      5 C5           4.7300     1.2960     0.8340 ca         1 K9Q      -0.099000
      6 C6           4.1170     1.1980    -1.5140 ca         1 K9Q      -0.099000
      7 C7           2.4770    -1.2640    -0.7580 ca         1 K9Q      -0.096500
      8 C8           2.0900    -0.1430     1.3580 ca         1 K9Q      -0.096500
      9 C9           1.4620    -2.1870    -0.4560 ca         1 K9Q      -0.101500
     10 C10          1.0750    -1.0670     1.6620 ca         1 K9Q      -0.101500
     11 C11          3.8950     0.7650    -0.1820 cp         1 K9Q      -0.034000
     12 C12          2.8130    -0.2210     0.1420 cp         1 K9Q      -0.030000
     13 C13          0.7540    -2.0940     0.7560 ca         1 K9Q      -0.073300
     14 C14         -2.0250    -0.3070    -0.1240 c          1 K9Q       0.595100
     15 C15         -4.0660     1.2060     0.1250 c5         1 K9Q      -0.096400
     16 C16         -2.8650     3.1840    -0.2700 c5         1 K9Q       0.110800
     17 C17         -2.5960     0.9730     0.6010 c5         1 K9Q       0.075500
     18 C18         -3.8890     2.2620    -0.9890 c5         1 K9Q       0.135300
     19 C19         -0.3550    -3.0910     1.0760 c3         1 K9Q      -0.038100
     20 C20         -1.6950    -2.7640     0.3710 c3         1 K9Q       0.104700
     21 N21         -4.0900    -3.5510     0.0320 n8         1 K9Q      -1.003200
     22 N22         -1.8470     2.2430     0.2670 n7         1 K9Q      -0.833400
     23 N23         -2.1470    -1.4040     0.7040 ns         1 K9Q      -0.473900
     24 O24         -1.5000    -0.3440    -1.2320 o          1 K9Q      -0.616100
     25 O25         -5.1190     2.9170    -1.3020 oh         1 K9Q      -0.649000
     26 H1          -2.4400    -4.8120     0.3850 h1         1 K9Q       0.031200
     27 H2          -2.9590    -3.8450     1.7830 h1         1 K9Q       0.031200
     28 H4           6.3780     2.6130     1.3240 ha         1 K9Q       0.112500
     29 H5           5.2820     2.4450    -2.8460 ha         1 K9Q       0.112500
     30 H6           4.6010     0.9790     1.8650 ha         1 K9Q       0.113500
     31 H7           3.4890     0.8250    -2.3190 ha         1 K9Q       0.113500
     32 H8           3.0170    -1.3670    -1.6960 ha         1 K9Q       0.115000
     33 H9           2.3060     0.6500     2.0690 ha         1 K9Q       0.115000
     34 H10          1.2260    -2.9760    -1.1660 ha         1 K9Q       0.108500
     35 H11          0.5320    -0.9760     2.6000 ha         1 K9Q       0.108500
     36 H12         -4.5540     0.2920    -0.2340 hc         1 K9Q       0.071200
     37 H13         -4.6810     1.5950     0.9450 hc         1 K9Q       0.071200
     38 H14         -2.4160     3.9210    -0.9510 h1         1 K9Q       0.056700
     39 H15         -3.3490     3.7350     0.5500 h1         1 K9Q       0.056700
     40 H16         -2.5710     0.7900     1.6850 h1         1 K9Q       0.076700
     41 H17         -3.4480     1.8130    -1.8910 h1         1 K9Q       0.043700
     42 H18         -0.0380    -4.0990     0.7830 hc         1 K9Q       0.049700
     43 H19         -0.5230    -3.1320     2.1590 hc         1 K9Q       0.049700
     44 H20         -1.5140    -2.8110    -0.7120 h1         1 K9Q       0.085700
     45 H21         -3.9670    -3.6060    -0.9870 hn         1 K9Q       0.402000
     46 H22         -4.7390    -4.3200     0.2370 hn         1 K9Q       0.402000
     47 H24         -1.1890     2.0140    -0.4940 hn         1 K9Q       0.433000
     48 H26         -2.6200    -1.2640     1.5870 hn         1 K9Q       0.306500
     49 H27         -4.9280     3.5600    -2.0210 ho         1 K9Q       0.444000
     50 H3           6.7310     3.3510    -1.0310 ha         1 K9Q       0.112000
@<TRIPOS>BOND
     1     1    20 1   
     2     1    21 1   
     3     1    26 1   
     4     1    27 1   
     5     2     3 ar  
     6     2     4 ar  
     7     2    50 1   
     8     3     5 ar  
     9     3    28 1   
    10     4     6 ar  
    11     4    29 1   
    12     5    11 ar  
    13     5    30 1   
    14     6    11 ar  
    15     6    31 1   
    16     7     9 ar  
    17     7    12 ar  
    18     7    32 1   
    19     8    10 ar  
    20     8    12 ar  
    21     8    33 1   
    22     9    13 ar  
    23     9    34 1   
    24    10    13 ar  
    25    10    35 1   
    26    11    12 1   
    27    13    19 1   
    28    14    17 1   
    29    14    23 1   
    30    14    24 2   
    31    15    17 1   
    32    15    18 1   
    33    15    36 1   
    34    15    37 1   
    35    16    18 1   
    36    16    22 1   
    37    16    38 1   
    38    16    39 1   
    39    17    22 1   
    40    17    40 1   
    41    18    25 1   
    42    18    41 1   
    43    19    20 1   
    44    19    42 1   
    45    19    43 1   
    46    20    23 1   
    47    20    44 1   
    48    21    45 1   
    49    21    46 1   
    50    22    47 1   
    51    23    48 1   
    52    25    49 1   
@<TRIPOS>SUBSTRUCTURE
     1 K9Q         1 TEMP              0 ****  ****    0 ROOT
