@<TRIPOS>MOLECULE
K9R
   62    65     1     0     0
SMALL
abcg2


@<TRIPOS>ATOM
      1 N1          31.1160    -5.9620     8.2280 ns         1 K9R      -0.530900
      2 C7          35.3280    -3.2650    13.1170 c3         1 K9R      -0.061400
      3 C8          36.7680    -2.9280    13.4750 c3         1 K9R      -0.148400
      4 N2          38.8440    -3.9500    14.2010 ns         1 K9R      -0.497900
      5 C9          37.5050    -4.0400    14.1800 c          1 K9R       0.599100
      6 O1          38.8960    -4.2420    17.0910 o          1 K9R      -0.472100
      7 C1          32.0900    -6.0470    10.3470 c5         1 K9R       0.094700
      8 C5          33.7360    -4.5820    11.6670 c3         1 K9R      -0.057400
      9 C6          35.1940    -4.3160    12.0220 c3         1 K9R      -0.078400
     10 C4          33.5520    -5.7070    10.6670 c5         1 K9R       0.075300
     11 C3          33.4500    -6.7950     8.3690 c5         1 K9R       0.034600
     12 O3          36.9450    -4.9710    14.7490 o          1 K9R      -0.612100
     13 C2          32.0400    -6.7760     8.9700 c5         1 K9R       0.106700
     14 N           31.2710    -4.8820    10.1230 ns         1 K9R      -0.509900
     15 S           34.3060    -5.3500     9.0460 ss         1 K9R      -0.410000
     16 C           30.6560    -4.8820     8.9050 c          1 K9R       0.615000
     17 O           29.8460    -4.0610     8.5050 o          1 K9R      -0.578000
     18 C10         39.6010    -4.9660    14.8790 c5         1 K9R       0.014700
     19 C21         39.5040    -6.3650    14.2480 c5         1 K9R      -0.200400
     20 C22         38.7360    -7.2160    15.2300 c          1 K9R       0.604100
     21 O2          38.1050    -8.2070    14.9820 o          1 K9R      -0.481100
     22 C12         38.9410    -6.6200    16.6120 c5         1 K9R      -0.224400
     23 C11         39.0990    -5.1410    16.3240 c          1 K9R       0.584100
     24 C13         37.9840    -7.0050    17.6920 ca         1 K9R      -0.057300
     25 C20         36.6140    -6.8270    17.5260 ca         1 K9R      -0.059000
     26 C18         35.7230    -7.1910    18.5280 ca         1 K9R      -0.085300
     27 C19         34.2520    -6.9740    18.3420 c3         1 K9R       0.140400
     28 S2          33.8750    -5.2450    18.8130 sh         1 K9R      -0.451300
     29 C17         36.2140    -7.7260    19.7150 ca         1 K9R      -0.065000
     30 C15         37.5790    -7.9040    19.9030 ca         1 K9R      -0.085300
     31 C14         38.4540    -7.5460    18.8830 ca         1 K9R      -0.059000
     32 C16         38.1020    -8.5100    21.1700 c3         1 K9R       0.140400
     33 S1          38.2310   -10.3190    20.9160 sh         1 K9R      -0.451300
     34 H6          30.8520    -6.1530     7.2760 hn         1 K9R       0.345500
     35 H12         34.8380    -2.3440    12.7900 hc         1 K9R       0.052700
     36 H11         34.7940    -3.5910    14.0120 hc         1 K9R       0.052700
     37 H14         37.3270    -2.6240    12.5850 hc         1 K9R       0.062200
     38 H13         36.7870    -2.0620    14.1460 hc         1 K9R       0.062200
     39 H15         39.3240    -3.2030    13.7270 hn         1 K9R       0.328500
     40 H           31.6810    -6.6670    11.1500 h1         1 K9R       0.061700
     41 H8          33.2740    -3.6680    11.2870 hc         1 K9R       0.052700
     42 H7          33.1910    -4.8530    12.5780 hc         1 K9R       0.052700
     43 H10         35.6660    -5.2500    12.3380 hc         1 K9R       0.050700
     44 H9          35.7390    -3.9790    11.1340 hc         1 K9R       0.050700
     45 H2          34.0260    -6.6140    11.0580 h1         1 K9R       0.072700
     46 H5          33.9740    -7.7050     8.6680 h1         1 K9R       0.077700
     47 H4          33.4320    -6.7540     7.2810 h1         1 K9R       0.077700
     48 H1          31.6720    -7.8000     9.0650 h1         1 K9R       0.066700
     49 H3          30.8670    -4.3680    10.8870 hn         1 K9R       0.334500
     50 H16         40.6370    -4.6270    14.9230 h1         1 K9R       0.076700
     51 H28         39.0420    -6.3650    13.2610 hc         1 K9R       0.081700
     52 H27         40.5000    -6.8030    14.1380 hc         1 K9R       0.081700
     53 H17         39.9580    -6.9500    16.8890 hc         1 K9R       0.087700
     54 H26         36.2320    -6.4000    16.6070 ha         1 K9R       0.127500
     55 H23         33.9630    -7.1300    17.3030 h1         1 K9R       0.064950
     56 H24         33.6750    -7.6520    18.9680 h1         1 K9R       0.064950
     57 H25         32.5630    -5.2670    18.5460 hs         1 K9R       0.202800
     58 H22         35.5230    -8.0070    20.5020 ha         1 K9R       0.118000
     59 H18         39.5200    -7.6910    19.0210 ha         1 K9R       0.127500
     60 H19         39.0860    -8.1120    21.4140 h1         1 K9R       0.064950
     61 H20         37.4300    -8.3120    22.0040 h1         1 K9R       0.064950
     62 H21         38.7170   -10.6360    22.1230 hs         1 K9R       0.202800
@<TRIPOS>BOND
     1     1    13 1   
     2     1    16 1   
     3     1    34 1   
     4     2     3 1   
     5     2     9 1   
     6     2    35 1   
     7     2    36 1   
     8     3     5 1   
     9     3    37 1   
    10     3    38 1   
    11     4     5 1   
    12     4    18 1   
    13     4    39 1   
    14     5    12 2   
    15     6    23 2   
    16     7    10 1   
    17     7    13 1   
    18     7    14 1   
    19     7    40 1   
    20     8     9 1   
    21     8    10 1   
    22     8    41 1   
    23     8    42 1   
    24     9    43 1   
    25     9    44 1   
    26    10    15 1   
    27    10    45 1   
    28    11    13 1   
    29    11    15 1   
    30    11    46 1   
    31    11    47 1   
    32    13    48 1   
    33    14    16 1   
    34    14    49 1   
    35    16    17 2   
    36    18    19 1   
    37    18    23 1   
    38    18    50 1   
    39    19    20 1   
    40    19    51 1   
    41    19    52 1   
    42    20    21 2   
    43    20    22 1   
    44    22    23 1   
    45    22    24 1   
    46    22    53 1   
    47    24    25 ar  
    48    24    31 ar  
    49    25    26 ar  
    50    25    54 1   
    51    26    27 1   
    52    26    29 ar  
    53    27    28 1   
    54    27    55 1   
    55    27    56 1   
    56    28    57 1   
    57    29    30 ar  
    58    29    58 1   
    59    30    31 ar  
    60    30    32 1   
    61    31    59 1   
    62    32    33 1   
    63    32    60 1   
    64    32    61 1   
    65    33    62 1   
@<TRIPOS>SUBSTRUCTURE
     1 K9R         1 TEMP              0 ****  ****    0 ROOT
