@<TRIPOS>MOLECULE
K9R
   62    65     1     0     0
SMALL
No Charge or Current Charge


@<TRIPOS>ATOM
      1 N1          32.5450    -5.7900     6.5440 ns         1 K9R      -0.530900
      2 C7          34.3900    -3.1930    12.8630 c3         1 K9R      -0.061400
      3 C8          35.5980    -2.8320    13.7630 c3         1 K9R      -0.148400
      4 N2          37.3520    -4.5190    14.0860 ns         1 K9R      -0.497900
      5 C9          36.1290    -4.0430    14.5380 c          1 K9R       0.599100
      6 O1          38.2100    -4.5630    16.9220 o          1 K9R      -0.472100
      7 C1          32.5670    -6.0790     8.9020 c5         1 K9R       0.094700
      8 C5          33.5170    -4.5240    10.8330 c3         1 K9R      -0.057400
      9 C6          34.7240    -4.2120    11.7480 c3         1 K9R      -0.078400
     10 C4          33.8060    -5.5840     9.7350 c5         1 K9R       0.075300
     11 C3          34.6550    -6.4660     7.4740 c5         1 K9R       0.034600
     12 O3          35.5210    -4.5130    15.4870 o          1 K9R      -0.612100
     13 C2          33.1070    -6.6980     7.5470 c5         1 K9R       0.106700
     14 N           31.8460    -4.8890     8.4330 ns         1 K9R      -0.509900
     15 S           35.0180    -4.9580     8.4840 ss         1 K9R      -0.410000
     16 C           31.8670    -4.7540     7.0880 c          1 K9R       0.615000
     17 O           31.3420    -3.8530     6.4640 o          1 K9R      -0.578000
     18 C10         38.0230    -5.7070    14.6950 c5         1 K9R       0.014700
     19 C21         37.1130    -6.9590    14.4650 c5         1 K9R      -0.200400
     20 C22         36.6730    -7.3150    15.8980 c          1 K9R       0.604100
     21 O2          35.5230    -7.4020    16.3060 o          1 K9R      -0.481100
     22 C12         37.9130    -7.0190    16.7540 c5         1 K9R      -0.224400
     23 C11         38.1530    -5.5870    16.2500 c          1 K9R       0.584100
     24 C13         37.7460    -7.1880    18.2680 ca         1 K9R      -0.057300
     25 C20         36.7900    -6.4450    18.9900 ca         1 K9R      -0.059000
     26 C18         36.6440    -6.6140    20.3800 ca         1 K9R      -0.085300
     27 C19         35.6050    -5.8080    21.1450 c3         1 K9R       0.140400
     28 S2          36.3870    -4.2470    21.7650 sh         1 K9R      -0.451300
     29 C17         37.4660    -7.5330    21.0560 ca         1 K9R      -0.065000
     30 C15         38.4270    -8.2810    20.3510 ca         1 K9R      -0.085300
     31 C14         38.5600    -8.1060    18.9610 ca         1 K9R      -0.059000
     32 C16         39.3160    -9.2750    21.0860 c3         1 K9R       0.140400
     33 S1          38.5240   -10.9490    21.0300 sh         1 K9R      -0.451300
     34 H6          32.6560    -5.8400     5.5390 hn         1 K9R       0.345500
     35 H12         34.0100    -2.2720    12.4020 hc         1 K9R       0.052700
     36 H11         33.5800    -3.5890    13.4880 hc         1 K9R       0.052700
     37 H14         36.3880    -2.4080    13.1320 hc         1 K9R       0.062200
     38 H13         35.2670    -2.0780    14.4860 hc         1 K9R       0.062200
     39 H15         37.7520    -4.0170    13.3010 hn         1 K9R       0.328500
     40 H           31.9220    -6.7680     9.4630 h1         1 K9R       0.061700
     41 H8          33.1780    -3.5880    10.3730 hc         1 K9R       0.052700
     42 H7          32.6900    -4.8800    11.4600 hc         1 K9R       0.052700
     43 H10         35.0750    -5.1480    12.2000 hc         1 K9R       0.050700
     44 H9          35.5500    -3.8200    11.1420 hc         1 K9R       0.050700
     45 H2          34.2610    -6.4540    10.2300 h1         1 K9R       0.072700
     46 H5          35.1870    -7.3180     7.9180 h1         1 K9R       0.077700
     47 H4          35.0190    -6.3490     6.4450 h1         1 K9R       0.077700
     48 H1          32.8160    -7.7460     7.3920 h1         1 K9R       0.066700
     49 H3          31.3690    -4.1980     8.9980 hn         1 K9R       0.334500
     50 H16         39.0290    -5.8640    14.2820 h1         1 K9R       0.076700
     51 H28         36.2550    -6.8130    13.8000 hc         1 K9R       0.081700
     52 H27         37.7560    -7.7650    14.0920 hc         1 K9R       0.081700
     53 H17         38.7140    -7.6130    16.3000 hc         1 K9R       0.087700
     54 H26         36.1540    -5.7300    18.4700 ha         1 K9R       0.127500
     55 H23         34.7590    -5.5550    20.4920 h1         1 K9R       0.064950
     56 H24         35.2250    -6.3860    21.9980 h1         1 K9R       0.064950
     57 H25         35.2770    -3.7620    22.3760 hs         1 K9R       0.202800
     58 H22         37.3580    -7.6660    22.1310 ha         1 K9R       0.118000
     59 H18         39.3000    -8.6880    18.4160 ha         1 K9R       0.127500
     60 H19         40.3050    -9.3250    20.6120 h1         1 K9R       0.064950
     61 H20         39.4460    -8.9710    22.1330 h1         1 K9R       0.064950
     62 H21         39.4930   -11.5900    21.7290 hs         1 K9R       0.202800
@<TRIPOS>BOND
     1     1    13 1   
     2     1    16 1   
     3     1    34 1   
     4     2     3 1   
     5     2     9 1   
     6     2    35 1   
     7     2    36 1   
     8     3     5 1   
     9     3    37 1   
    10     3    38 1   
    11     4     5 1   
    12     4    18 1   
    13     4    39 1   
    14     5    12 2   
    15     6    23 2   
    16     7    10 1   
    17     7    13 1   
    18     7    14 1   
    19     7    40 1   
    20     8     9 1   
    21     8    10 1   
    22     8    41 1   
    23     8    42 1   
    24     9    43 1   
    25     9    44 1   
    26    10    15 1   
    27    10    45 1   
    28    11    13 1   
    29    11    15 1   
    30    11    46 1   
    31    11    47 1   
    32    13    48 1   
    33    14    16 1   
    34    14    49 1   
    35    16    17 2   
    36    18    19 1   
    37    18    23 1   
    38    18    50 1   
    39    19    20 1   
    40    19    51 1   
    41    19    52 1   
    42    20    21 2   
    43    20    22 1   
    44    22    23 1   
    45    22    24 1   
    46    22    53 1   
    47    24    25 ar  
    48    24    31 ar  
    49    25    26 ar  
    50    25    54 1   
    51    26    27 1   
    52    26    29 ar  
    53    27    28 1   
    54    27    55 1   
    55    27    56 1   
    56    28    57 1   
    57    29    30 ar  
    58    29    58 1   
    59    30    31 ar  
    60    30    32 1   
    61    31    59 1   
    62    32    33 1   
    63    32    60 1   
    64    32    61 1   
    65    33    62 1   
@<TRIPOS>SUBSTRUCTURE
     1 K9R         1 TEMP              0 ****  ****    0 ROOT
