@<TRIPOS>MOLECULE
K9S
   20    21     1     0     0
SMALL
No Charge or Current Charge


@<TRIPOS>ATOM
      1 C1           1.4000    -1.3750    -0.1400 cc         1 K9S      -0.160400
      2 N1           2.9350     1.4690     0.7940 n8         1 K9S      -0.995200
      3 S2          -0.1650    -2.1990     0.0980 ss         1 K9S       0.047400
      4 C3          -0.9780    -0.6160     0.0340 ca         1 K9S      -0.159000
      5 C4          -0.1150     0.4450    -0.1510 ca         1 K9S      -0.057800
      6 C5           1.2630    -0.0020    -0.2530 cd         1 K9S      -0.069400
      7 C6          -2.3620    -0.4130     0.1560 ca         1 K9S      -0.086000
      8 C7          -2.8630     0.9020     0.0900 ca         1 K9S      -0.101000
      9 C10          2.4370     0.9220    -0.4830 c3         1 K9S       0.210000
     10 C8          -1.9820     1.9890    -0.0960 ca         1 K9S      -0.121000
     11 C9          -0.5960     1.7650    -0.2170 ca         1 K9S      -0.057000
     12 H1           2.3040    -1.9700    -0.1850 h4         1 K9S       0.212000
     13 H11N         3.2540     0.6890     1.3790 hn         1 K9S       0.396000
     14 H12N         3.7910     2.0060     0.6130 hn         1 K9S       0.396000
     15 H101         2.1410     1.7510    -1.1420 h1         1 K9S       0.035700
     16 H102         3.2490     0.3680    -0.9740 h1         1 K9S       0.035700
     17 H6          -3.0350    -1.2550     0.3010 ha         1 K9S       0.119000
     18 H9           0.0850     2.6020    -0.3550 ha         1 K9S       0.130000
     19 H7          -3.9320     1.0790     0.1830 ha         1 K9S       0.111000
     20 H8          -2.3730     3.0030    -0.1440 ha         1 K9S       0.113000
@<TRIPOS>BOND
     1     1     3 1   
     2     1     6 2   
     3     1    12 1   
     4     2     9 1   
     5     2    13 1   
     6     2    14 1   
     7     3     4 1   
     8     4     5 ar  
     9     4     7 ar  
    10     5     6 1   
    11     5    11 ar  
    12     6     9 1   
    13     7     8 ar  
    14     7    17 1   
    15     8    10 ar  
    16     8    19 1   
    17     9    15 1   
    18     9    16 1   
    19    10    11 ar  
    20    10    20 1   
    21    11    18 1   
@<TRIPOS>SUBSTRUCTURE
     1 K9S         1 TEMP              0 ****  ****    0 ROOT
