@<TRIPOS>MOLECULE
K9S
   20    21     1     0     0
SMALL
abcg2


@<TRIPOS>ATOM
      1 C1           1.3430    -1.4370    -0.2570 cc         1 K9S      -0.160400
      2 N1           2.6720     1.6770     0.6740 n8         1 K9S      -0.995200
      3 S2          -0.2030    -2.1900    -0.0580 ss         1 K9S       0.047400
      4 C3          -0.9840    -0.6420    -0.0060 ca         1 K9S      -0.159000
      5 C4          -0.0520     0.4020    -0.1320 ca         1 K9S      -0.057800
      6 C5           1.2970    -0.0860    -0.2860 cd         1 K9S      -0.069400
      7 C6          -2.3490    -0.3970     0.1300 ca         1 K9S      -0.086000
      8 C7          -2.7790     0.9150     0.1370 ca         1 K9S      -0.101000
      9 C10          2.4940     0.7950    -0.4700 c3         1 K9S       0.210000
     10 C8          -1.8650     1.9700     0.0150 ca         1 K9S      -0.121000
     11 C9          -0.5130     1.7240    -0.1150 ca         1 K9S      -0.057000
     12 H1           2.2230    -2.0580    -0.3480 h4         1 K9S       0.212000
     13 H11N         2.9630     1.1330     1.4770 hn         1 K9S       0.396000
     14 H12N         3.4290     2.3200     0.4840 hn         1 K9S       0.396000
     15 H101         2.3380     1.4210    -1.3530 h1         1 K9S       0.035700
     16 H102         3.3650     0.1650    -0.6900 h1         1 K9S       0.035700
     17 H6          -3.0540    -1.2130     0.2250 ha         1 K9S       0.119000
     18 H9           0.1930     2.5410    -0.1860 ha         1 K9S       0.130000
     19 H7          -3.8350     1.1280     0.2390 ha         1 K9S       0.111000
     20 H8          -2.2260     2.9910     0.0280 ha         1 K9S       0.113000
@<TRIPOS>BOND
     1     1     3 1   
     2     1     6 2   
     3     1    12 1   
     4     2     9 1   
     5     2    13 1   
     6     2    14 1   
     7     3     4 1   
     8     4     5 ar  
     9     4     7 ar  
    10     5     6 1   
    11     5    11 ar  
    12     6     9 1   
    13     7     8 ar  
    14     7    17 1   
    15     8    10 ar  
    16     8    19 1   
    17     9    15 1   
    18     9    16 1   
    19    10    11 ar  
    20    10    20 1   
    21    11    18 1   
@<TRIPOS>SUBSTRUCTURE
     1 K9S         1 TEMP              0 ****  ****    0 ROOT
