@<TRIPOS>MOLECULE
K9U
   57    60     1     0     0
SMALL
No Charge or Current Charge


@<TRIPOS>ATOM
      1 N1          -5.3290    16.8830    41.0120 nh         1 K9U      -0.812400
      2 N3           0.0370    12.2340    38.7770 ns         1 K9U      -0.374100
      3 C4          -9.4800    17.7200    41.3700 ca         1 K9U       0.085000
      4 C5          -9.0490    16.5700    40.6790 ca         1 K9U       0.165000
      5 C6          -7.6780    16.2910    40.5570 ca         1 K9U      -0.168000
      6 C7          -4.8400    15.4960    40.7210 c6         1 K9U       0.193800
      7 C8          -3.3440    15.2870    41.0950 c6         1 K9U       0.095000
      8 C10         -4.4180    17.9350    40.4650 c6         1 K9U       0.207800
      9 C13         -0.5470    13.9090    40.4160 ca         1 K9U      -0.131800
     10 C15         -0.0920    13.0540    37.6950 c          1 K9U       0.557200
     11 C17         -0.4940    14.3240    41.7700 ca         1 K9U      -0.045000
     12 C20          0.2100    11.6870    41.1320 ca         1 K9U      -0.170000
     13 C22         -3.8620    18.3730    44.6780 c3         1 K9U       0.108000
     14 C1          -6.7170    17.1530    41.1200 ca         1 K9U       0.328000
     15 C12         -0.9190    14.8350    39.3120 cc         1 K9U      -0.030400
     16 C14         -0.1280    12.5960    40.1170 ca         1 K9U       0.101600
     17 C16         -0.5790    14.4040    38.0310 cd         1 K9U      -0.261200
     18 C18         -0.1550    13.4160    42.7890 ca         1 K9U      -0.142000
     19 C19          0.1780    12.0910    42.4740 ca         1 K9U      -0.052000
     20 C2          -7.1570    18.3010    41.8080 ca         1 K9U      -0.162000
     21 C23         -3.7010    17.0260    45.4130 c3         1 K9U      -0.176400
     22 C3          -8.5290    18.5840    41.9340 ca         1 K9U      -0.059000
     23 C9          -2.9510    17.7310    40.9420 c6         1 K9U       0.017700
     24 F1          -3.5750    15.9350    47.5240 f          1 K9U      -0.114667
     25 F2          -4.8940    17.6720    47.3790 f          1 K9U      -0.114667
     26 F3          -2.7210    17.9430    47.3890 f          1 K9U      -0.114667
     27 N2          -2.4630    16.3690    40.5520 n          1 K9U      -0.387800
     28 O1          -1.4480    17.0660    38.6250 o          1 K9U      -0.582100
     29 Cl1        -11.1950    18.0970    41.5420 cl         1 K9U      -0.175000
     30 Cl2        -10.2110    15.4600    39.9510 cl         1 K9U      -0.178000
     31 H1           0.3530    11.2930    38.5860 hn         1 K9U       0.330500
     32 H2          -7.3750    15.4060    40.0100 ha         1 K9U       0.133000
     33 H3          -4.9620    15.2810    39.6500 h1         1 K9U       0.055700
     34 H4          -5.4360    14.7570    41.2750 h1         1 K9U       0.055700
     35 H5          -3.2520    15.2630    42.1900 h1         1 K9U       0.073200
     36 H6          -3.0450    14.3000    40.7220 h1         1 K9U       0.073200
     37 H7          -4.4370    17.8970    39.3660 h1         1 K9U       0.055200
     38 H8          -4.7500    18.9440    40.7490 h1         1 K9U       0.055200
     39 H9          -0.7040    15.3520    42.0510 ha         1 K9U       0.145000
     40 H10          0.5230    10.6760    40.8810 ha         1 K9U       0.121000
     41 H11         -3.0480    19.0560    44.9590 h1         1 K9U       0.076700
     42 H12         -4.8120    18.8440    44.9670 h1         1 K9U       0.076700
     43 H13         -0.7450    15.0270    37.1600 ha         1 K9U       0.216000
     44 H14         -0.1400    13.7470    43.8250 ha         1 K9U       0.127000
     45 H15          0.4460    11.3910    43.2640 ha         1 K9U       0.119000
     46 H16         -6.4400    18.9790    42.2580 ha         1 K9U       0.114000
     47 H17         -4.5040    16.3480    45.1000 hc         1 K9U       0.084200
     48 H18         -2.7550    16.5600    45.1110 hc         1 K9U       0.084200
     49 H19         -8.8550    19.4730    42.4700 ha         1 K9U       0.132000
     50 H20         -2.3420    18.4950    40.4430 h1         1 K9U       0.104700
     51 H21         -4.7360    17.9880    42.7580 hn         1 K9U       0.314500
     52 C21         -2.7300    18.0130    42.4530 c          1 K9U       0.596100
     53 C11         -1.5940    16.1730    39.4520 c          1 K9U       0.607300
     54 N4          -3.8570    18.1880    43.2280 ns         1 K9U      -0.507900
     55 O3          -1.6070    18.0670    42.9370 o          1 K9U      -0.593100
     56 O2           0.1540    12.6810    36.5600 o          1 K9U      -0.550000
     57 C24         -3.7230    17.1490    46.9490 c3         1 K9U       0.293000
@<TRIPOS>BOND
     1     1     6 1   
     2     1     8 1   
     3     1    14 1   
     4     2    10 1   
     5     2    16 1   
     6     2    31 1   
     7     3     4 ar  
     8     3    22 ar  
     9     3    29 1   
    10     4     5 ar  
    11     4    30 1   
    12     5    14 ar  
    13     5    32 1   
    14     6     7 1   
    15     6    33 1   
    16     6    34 1   
    17     7    27 1   
    18     7    35 1   
    19     7    36 1   
    20     8    23 1   
    21     8    37 1   
    22     8    38 1   
    23     9    11 ar  
    24     9    15 1   
    25     9    16 ar  
    26    10    17 1   
    27    10    56 2   
    28    11    18 ar  
    29    11    39 1   
    30    12    16 ar  
    31    12    19 ar  
    32    12    40 1   
    33    13    21 1   
    34    13    41 1   
    35    13    42 1   
    36    13    54 1   
    37    14    20 ar  
    38    15    17 2   
    39    15    53 1   
    40    17    43 1   
    41    18    19 ar  
    42    18    44 1   
    43    19    45 1   
    44    20    22 ar  
    45    20    46 1   
    46    21    47 1   
    47    21    48 1   
    48    21    57 1   
    49    22    49 1   
    50    23    27 1   
    51    23    50 1   
    52    23    52 1   
    53    24    57 1   
    54    25    57 1   
    55    26    57 1   
    56    27    53 1   
    57    28    53 2   
    58    51    54 1   
    59    52    54 1   
    60    52    55 2   
@<TRIPOS>SUBSTRUCTURE
     1 K9U         1 TEMP              0 ****  ****    0 ROOT
