@<TRIPOS>MOLECULE
K9U
   57    60     1     0     0
SMALL
abcg2


@<TRIPOS>ATOM
      1 N1          -5.3270    16.5440    40.9180 nh         1 K9U      -0.812400
      2 N3           0.2780    12.5500    38.4500 ns         1 K9U      -0.374100
      3 C4          -9.3460    16.9860    42.0930 ca         1 K9U       0.085000
      4 C5          -8.9770    15.9790    41.2090 ca         1 K9U       0.165000
      5 C6          -7.6600    15.8440    40.7890 ca         1 K9U      -0.168000
      6 C7          -4.8900    15.4110    40.1180 c6         1 K9U       0.193800
      7 C8          -3.4560    15.0520    40.4790 c6         1 K9U       0.095000
      8 C10         -4.4930    17.7080    40.6600 c6         1 K9U       0.207800
      9 C13         -0.3410    13.8250    40.3890 ca         1 K9U      -0.131800
     10 C15         -0.1280    13.5090    37.5510 c          1 K9U       0.557200
     11 C17         -0.4320    13.9230    41.7880 ca         1 K9U      -0.045000
     12 C20          0.6300    11.6040    40.6420 ca         1 K9U      -0.170000
     13 C22         -3.1810    18.6010    44.7040 c3         1 K9U       0.108000
     14 C1          -6.6630    16.7070    41.2630 ca         1 K9U       0.328000
     15 C12         -0.7760    14.8590    39.4890 cc         1 K9U      -0.030400
     16 C14          0.1950    12.6500    39.8210 ca         1 K9U       0.101600
     17 C16         -0.6760    14.7120    38.1480 cd         1 K9U      -0.261200
     18 C18         -0.0030    12.8870    42.5930 ca         1 K9U      -0.142000
     19 C19          0.5290    11.7270    42.0140 ca         1 K9U      -0.052000
     20 C2          -7.0510    17.7270    42.1530 ca         1 K9U      -0.162000
     21 C23         -4.6110    18.4180    45.2250 c3         1 K9U      -0.176400
     22 C3          -8.3650    17.8610    42.5530 ca         1 K9U      -0.059000
     23 C9          -3.0480    17.4360    41.0780 c6         1 K9U       0.017700
     24 F1          -5.9890    18.4040    47.1470 f          1 K9U      -0.114667
     25 F2          -4.2970    19.7650    47.1610 f          1 K9U      -0.114667
     26 F3          -3.9730    17.6320    47.3770 f          1 K9U      -0.114667
     27 N2          -2.5720    16.2200    40.4350 n          1 K9U      -0.387800
     28 O1          -0.4970    17.1060    40.1560 o          1 K9U      -0.582100
     29 CL1        -10.9880    17.1780    42.6420 cl         1 K9U      -0.175000
     30 CL2        -10.1560    14.8600    40.5830 cl         1 K9U      -0.178000
     31 H1           0.6600    11.7020    38.0510 hn         1 K9U       0.330500
     32 H2          -7.4330    15.0640    40.0800 ha         1 K9U       0.133000
     33 H3          -4.9730    15.6340    39.0450 h1         1 K9U       0.055700
     34 H4          -5.5020    14.5390    40.3350 h1         1 K9U       0.055700
     35 H5          -3.4350    14.6320    41.4860 h1         1 K9U       0.073200
     36 H6          -3.0910    14.3040    39.7800 h1         1 K9U       0.073200
     37 H7          -4.5000    17.9420    39.5870 h1         1 K9U       0.055200
     38 H8          -4.8690    18.5770    41.1860 h1         1 K9U       0.055200
     39 H9          -0.8550    14.8150    42.2330 ha         1 K9U       0.145000
     40 H10          1.0400    10.7090    40.1910 ha         1 K9U       0.121000
     41 H11         -2.5240    17.8380    45.1160 h1         1 K9U       0.076700
     42 H12         -2.7950    19.5790    44.9860 h1         1 K9U       0.076700
     43 H13         -1.0050    15.4850    37.4670 ha         1 K9U       0.216000
     44 H14         -0.0800    12.9690    43.6690 ha         1 K9U       0.127000
     45 H15          0.8650    10.9150    42.6470 ha         1 K9U       0.119000
     46 H16         -6.3170    18.4040    42.5630 ha         1 K9U       0.114000
     47 H17         -5.2720    19.1660    44.7850 hc         1 K9U       0.084200
     48 H18         -4.9890    17.4310    44.9570 hc         1 K9U       0.084200
     49 H19         -8.6390    18.6430    43.2480 ha         1 K9U       0.132000
     50 H20         -2.4260    18.2580    40.7260 h1         1 K9U       0.104700
     51 H21         -3.4060    19.3130    42.7260 hn         1 K9U       0.314500
     52 C21         -2.8940    17.3450    42.6080 c          1 K9U       0.596100
     53 C11         -1.2780    16.1600    40.0580 c          1 K9U       0.607300
     54 N4          -3.1440    18.4970    43.2580 ns         1 K9U      -0.507900
     55 O3          -2.5670    16.3070    43.1740 o          1 K9U      -0.593100
     56 O2          -0.0200    13.3210    36.3340 o          1 K9U      -0.550000
     57 C24         -4.7140    18.5540    46.7190 c3         1 K9U       0.293000
@<TRIPOS>BOND
     1     1     6 1   
     2     1     8 1   
     3     1    14 1   
     4     2    10 1   
     5     2    16 1   
     6     2    31 1   
     7     3     4 ar  
     8     3    22 ar  
     9     3    29 1   
    10     4     5 ar  
    11     4    30 1   
    12     5    14 ar  
    13     5    32 1   
    14     6     7 1   
    15     6    33 1   
    16     6    34 1   
    17     7    27 1   
    18     7    35 1   
    19     7    36 1   
    20     8    23 1   
    21     8    37 1   
    22     8    38 1   
    23     9    11 ar  
    24     9    15 1   
    25     9    16 ar  
    26    10    17 1   
    27    10    56 2   
    28    11    18 ar  
    29    11    39 1   
    30    12    16 ar  
    31    12    19 ar  
    32    12    40 1   
    33    13    21 1   
    34    13    41 1   
    35    13    42 1   
    36    13    54 1   
    37    14    20 ar  
    38    15    17 2   
    39    15    53 1   
    40    17    43 1   
    41    18    19 ar  
    42    18    44 1   
    43    19    45 1   
    44    20    22 ar  
    45    20    46 1   
    46    21    47 1   
    47    21    48 1   
    48    21    57 1   
    49    22    49 1   
    50    23    27 1   
    51    23    50 1   
    52    23    52 1   
    53    24    57 1   
    54    25    57 1   
    55    26    57 1   
    56    27    53 1   
    57    28    53 2   
    58    51    54 1   
    59    52    54 1   
    60    52    55 2   
@<TRIPOS>SUBSTRUCTURE
     1 K9U         1 TEMP              0 ****  ****    0 ROOT
