@<TRIPOS>MOLECULE
K9V
   57    59     1     0     0
SMALL
abcg2


@<TRIPOS>ATOM
      1 C10         -9.2280     2.2550    -1.1650 ca         1 K9V      -0.111000
      2 C15          1.2630    -2.8640    -1.6410 c6         1 K9V      -0.093900
      3 C17          2.9830    -1.6070    -0.3030 c6         1 K9V       0.171300
      4 C20          5.6150     0.8320     0.4050 ca         1 K9V      -0.172300
      5 C21          5.3550     2.0210     1.0750 ca         1 K9V       0.217500
      6 C24          7.0870     3.1740    -0.0740 ca         1 K9V      -0.051000
      7 C26          6.6390     0.8850    -0.5320 ca         1 K9V       0.217500
      8 C28          2.0630    -1.6810     0.9140 c6         1 K9V      -0.090900
      9 O01         -2.1250    -3.0230     0.8830 o          1 K9V      -0.651100
     10 C02         -1.8170    -2.0220     0.2390 c          1 K9V       0.652100
     11 N03         -2.6280    -0.9320     0.1440 ns         1 K9V      -0.522900
     12 C04         -3.8310    -0.7870     0.9290 c3         1 K9V       0.109000
     13 C05         -4.9020    -0.0170     0.1700 c3         1 K9V      -0.091400
     14 C06         -6.1690     0.1460     1.0100 c3         1 K9V      -0.029100
     15 C07         -7.2510     0.8820     0.2720 ca         1 K9V      -0.079300
     16 C08         -8.0450     0.2200    -0.6630 ca         1 K9V      -0.107000
     17 C09         -9.0240     0.8970    -1.3770 ca         1 K9V      -0.109500
     18 C11         -8.4450     2.9260    -0.2350 ca         1 K9V      -0.109500
     19 C12         -7.4650     2.2430     0.4750 ca         1 K9V      -0.107000
     20 N13         -0.6590    -1.9380    -0.4620 ns         1 K9V      -0.527900
     21 C14          0.3490    -2.9790    -0.4220 c6         1 K9V       0.134700
     22 C16          2.1730    -1.6370    -1.5910 c6         1 K9V      -0.090900
     23 O18          3.7680    -0.4300    -0.3240 os         1 K9V      -0.455000
     24 C19          4.8060    -0.4100     0.6280 c3         1 K9V       0.220900
     25 F22          4.3650     2.0350     1.9780 f          1 K9V      -0.170500
     26 C23          6.0670     3.1860     0.8660 ca         1 K9V      -0.176000
     27 C25          7.3850     2.0200    -0.7840 ca         1 K9V      -0.176000
     28 F27          6.9210    -0.2290    -1.2200 f          1 K9V      -0.170500
     29 C29          1.1880    -2.9290     0.8570 c6         1 K9V      -0.093900
     30 H1          -9.9940     2.7850    -1.7160 ha         1 K9V       0.112000
     31 H2           1.8820    -3.7660    -1.6760 hc         1 K9V       0.054450
     32 H3           0.6710    -2.8580    -2.5590 hc         1 K9V       0.054450
     33 H4           3.6460    -2.4890    -0.2870 h1         1 K9V       0.033700
     34 H5           7.6570     4.0750    -0.2540 ha         1 K9V       0.122000
     35 H6           2.6430    -1.6900     1.8400 hc         1 K9V       0.049950
     36 H7           1.4360    -0.7830     0.9430 hc         1 K9V       0.049950
     37 H8          -2.2490    -0.0870    -0.2540 hn         1 K9V       0.298500
     38 H9          -4.2030    -1.7810     1.1740 h1         1 K9V       0.051200
     39 H10         -3.6230    -0.2840     1.8810 h1         1 K9V       0.051200
     40 H11         -4.5250     0.9700    -0.1140 hc         1 K9V       0.047700
     41 H12         -5.1380    -0.5430    -0.7590 hc         1 K9V       0.047700
     42 H13         -6.5320    -0.8440     1.3030 hc         1 K9V       0.048700
     43 H14         -5.9230     0.6740     1.9350 hc         1 K9V       0.048700
     44 H15         -7.8950    -0.8410    -0.8340 ha         1 K9V       0.110500
     45 H16         -9.6300     0.3620    -2.0970 ha         1 K9V       0.111500
     46 H17         -8.5990     3.9830    -0.0580 ha         1 K9V       0.111500
     47 H18         -6.8610     2.7760     1.2010 ha         1 K9V       0.110500
     48 H19         -0.4390    -1.0800    -0.9420 hn         1 K9V       0.307500
     49 H20         -0.1640    -3.9420    -0.4680 h1         1 K9V       0.076700
     50 H21          2.8440    -1.6460    -2.4530 hc         1 K9V       0.049950
     51 H22          1.5860    -0.7150    -1.6650 hc         1 K9V       0.049950
     52 H23          5.4410    -1.2980     0.5290 h1         1 K9V       0.039700
     53 H24          4.4200    -0.4200     1.6520 h1         1 K9V       0.039700
     54 H25          5.8260     4.0800     1.4240 ha         1 K9V       0.138000
     55 H26          8.1760     2.0010    -1.5200 ha         1 K9V       0.138000
     56 H27          1.8190    -3.8240     0.8900 hc         1 K9V       0.054450
     57 H28          0.5380    -2.9770     1.7320 hc         1 K9V       0.054450
@<TRIPOS>BOND
     1     1    17 ar  
     2     1    18 ar  
     3     1    30 1   
     4     2    21 1   
     5     2    22 1   
     6     2    31 1   
     7     2    32 1   
     8     3     8 1   
     9     3    22 1   
    10     3    23 1   
    11     3    33 1   
    12     4     5 ar  
    13     4     7 ar  
    14     4    24 1   
    15     5    25 1   
    16     5    26 ar  
    17     6    26 ar  
    18     6    27 ar  
    19     6    34 1   
    20     7    27 ar  
    21     7    28 1   
    22     8    29 1   
    23     8    35 1   
    24     8    36 1   
    25     9    10 2   
    26    10    11 1   
    27    10    20 1   
    28    11    12 1   
    29    11    37 1   
    30    12    13 1   
    31    12    38 1   
    32    12    39 1   
    33    13    14 1   
    34    13    40 1   
    35    13    41 1   
    36    14    15 1   
    37    14    42 1   
    38    14    43 1   
    39    15    16 ar  
    40    15    19 ar  
    41    16    17 ar  
    42    16    44 1   
    43    17    45 1   
    44    18    19 ar  
    45    18    46 1   
    46    19    47 1   
    47    20    21 1   
    48    20    48 1   
    49    21    29 1   
    50    21    49 1   
    51    22    50 1   
    52    22    51 1   
    53    23    24 1   
    54    24    52 1   
    55    24    53 1   
    56    26    54 1   
    57    27    55 1   
    58    29    56 1   
    59    29    57 1   
@<TRIPOS>SUBSTRUCTURE
     1 K9V         1 TEMP              0 ****  ****    0 ROOT
