@<TRIPOS>MOLECULE
K9V
   57    59     1     0     0
SMALL
No Charge or Current Charge


@<TRIPOS>ATOM
      1 C10         -9.6740     0.4010    -1.3380 ca         1 K9V      -0.111000
      2 C15          0.8280    -1.8190    -2.1800 c6         1 K9V      -0.093900
      3 C17          2.8800    -1.4150    -0.6910 c6         1 K9V       0.171300
      4 C20          5.9630     0.2750     0.6090 ca         1 K9V      -0.172300
      5 C21          5.8230     1.3070     1.5580 ca         1 K9V       0.217500
      6 C24          7.8570     2.3730     0.7480 ca         1 K9V      -0.051000
      7 C26          7.0610     0.3110    -0.2720 ca         1 K9V       0.217500
      8 C28          2.0160    -1.7690     0.5530 c6         1 K9V      -0.090900
      9 O01         -2.4980    -2.0140     0.5940 o          1 K9V      -0.651100
     10 C02         -1.9330    -0.9920     0.2460 c          1 K9V       0.652100
     11 N03         -2.3770     0.2660     0.5490 ns         1 K9V      -0.522900
     12 C04         -3.6000     0.5570     1.2990 c3         1 K9V       0.109000
     13 C05         -4.8640     0.4350     0.4230 c3         1 K9V      -0.091400
     14 C06         -6.1620     0.7580     1.1910 c3         1 K9V      -0.029100
     15 C07         -7.3960     0.6340     0.3070 ca         1 K9V      -0.079300
     16 C08         -8.0610    -0.6020     0.1850 ca         1 K9V      -0.107000
     17 C09         -9.1970    -0.7180    -0.6350 ca         1 K9V      -0.109500
     18 C11         -9.0140     1.6360    -1.2210 ca         1 K9V      -0.109500
     19 C12         -7.8780     1.7520    -0.4020 ca         1 K9V      -0.107000
     20 N13         -0.7820    -0.9760    -0.4890 ns         1 K9V      -0.527900
     21 C14         -0.0480    -2.1630    -0.9460 c6         1 K9V       0.134700
     22 C16          1.9910    -0.8520    -1.8290 c6         1 K9V      -0.090900
     23 O18          3.9020    -0.4480    -0.3770 os         1 K9V      -0.455000
     24 C19          4.9420    -0.8500     0.5330 c3         1 K9V       0.220900
     25 F22          4.7790     1.3090     2.4180 f          1 K9V      -0.170500
     26 C23          6.7630     2.3490     1.6290 ca         1 K9V      -0.176000
     27 C25          8.0020     1.3500    -0.2040 ca         1 K9V      -0.176000
     28 F27          7.2250    -0.6610    -1.1990 f          1 K9V      -0.170500
     29 C29          0.8540    -2.7300     0.1830 c6         1 K9V      -0.093900
     30 H1         -10.5530     0.3120    -1.9730 ha         1 K9V       0.112000
     31 H2           1.2410    -2.7470    -2.5990 hc         1 K9V       0.054450
     32 H3           0.2030    -1.3810    -2.9700 hc         1 K9V       0.054450
     33 H4           3.3700    -2.3300    -1.0560 h1         1 K9V       0.033700
     34 H5           8.5860     3.1800     0.8020 ha         1 K9V       0.122000
     35 H6           2.6350    -2.2490     1.3230 hc         1 K9V       0.049950
     36 H7           1.6150    -0.8500     1.0020 hc         1 K9V       0.049950
     37 H8          -1.8260     1.0440     0.2120 hn         1 K9V       0.298500
     38 H9          -3.6710    -0.1330     2.1510 h1         1 K9V       0.051200
     39 H10         -3.5290     1.5780     1.6970 h1         1 K9V       0.051200
     40 H11         -4.7740     1.1140    -0.4330 hc         1 K9V       0.047700
     41 H12         -4.9300    -0.5830     0.0200 hc         1 K9V       0.047700
     42 H13         -6.2480     0.0840     2.0530 hc         1 K9V       0.048700
     43 H14         -6.0940     1.7730     1.6040 hc         1 K9V       0.048700
     44 H15         -7.6960    -1.4740     0.7230 ha         1 K9V       0.110500
     45 H16         -9.7060    -1.6750    -0.7260 ha         1 K9V       0.111500
     46 H17         -9.3820     2.5030    -1.7660 ha         1 K9V       0.111500
     47 H18         -7.3710     2.7110    -0.3190 ha         1 K9V       0.110500
     48 H19         -0.4050    -0.0680    -0.7220 hn         1 K9V       0.307500
     49 H20         -0.7830    -2.9290    -1.2380 h1         1 K9V       0.076700
     50 H21          2.6060    -0.6810    -2.7220 hc         1 K9V       0.049950
     51 H22          1.5910     0.1280    -1.5370 hc         1 K9V       0.049950
     52 H23          5.4260    -1.7720     0.1850 h1         1 K9V       0.039700
     53 H24          4.5380    -1.0470     1.5340 h1         1 K9V       0.039700
     54 H25          6.6410     3.1360     2.3680 ha         1 K9V       0.138000
     55 H26          8.8450     1.3610    -0.8910 ha         1 K9V       0.138000
     56 H27          1.2700    -3.6950    -0.1380 hc         1 K9V       0.054450
     57 H28          0.2490    -2.9420     1.0740 hc         1 K9V       0.054450
@<TRIPOS>BOND
     1     1    17 ar  
     2     1    18 ar  
     3     1    30 1   
     4     2    21 1   
     5     2    22 1   
     6     2    31 1   
     7     2    32 1   
     8     3     8 1   
     9     3    22 1   
    10     3    23 1   
    11     3    33 1   
    12     4     5 ar  
    13     4     7 ar  
    14     4    24 1   
    15     5    25 1   
    16     5    26 ar  
    17     6    26 ar  
    18     6    27 ar  
    19     6    34 1   
    20     7    27 ar  
    21     7    28 1   
    22     8    29 1   
    23     8    35 1   
    24     8    36 1   
    25     9    10 2   
    26    10    11 1   
    27    10    20 1   
    28    11    12 1   
    29    11    37 1   
    30    12    13 1   
    31    12    38 1   
    32    12    39 1   
    33    13    14 1   
    34    13    40 1   
    35    13    41 1   
    36    14    15 1   
    37    14    42 1   
    38    14    43 1   
    39    15    16 ar  
    40    15    19 ar  
    41    16    17 ar  
    42    16    44 1   
    43    17    45 1   
    44    18    19 ar  
    45    18    46 1   
    46    19    47 1   
    47    20    21 1   
    48    20    48 1   
    49    21    29 1   
    50    21    49 1   
    51    22    50 1   
    52    22    51 1   
    53    23    24 1   
    54    24    52 1   
    55    24    53 1   
    56    26    54 1   
    57    27    55 1   
    58    29    56 1   
    59    29    57 1   
@<TRIPOS>SUBSTRUCTURE
     1 K9V         1 TEMP              0 ****  ****    0 ROOT
