@<TRIPOS>MOLECULE
K9X
   41    44     1     0     0
SMALL
abcg2


@<TRIPOS>ATOM
      1 N3          93.1970    -7.2080    15.2350 na         1 K9X       0.180800
      2 C7          92.1130    -9.0690    15.5440 cc         1 K9X      -0.123900
      3 C8          94.0980    -9.0400    13.8340 c          1 K9X       0.661700
      4 C10         91.6220    -8.0610    16.3860 cc         1 K9X       0.285300
      5 C13         95.3460   -12.8350     8.7900 cc         1 K9X      -0.269100
      6 C15         95.5670   -10.7090    11.7680 cc         1 K9X      -0.210000
      7 C20         94.0850    -6.1530    14.7910 c3         1 K9X       0.067900
      8 C21         90.5310    -8.1480    17.3910 c3         1 K9X      -0.123400
      9 C22         92.3540   -14.3290     7.0370 ca         1 K9X      -0.085500
     10 C24         91.9790   -15.1130     5.9560 ca         1 K9X      -0.117500
     11 C26         92.9310   -15.5580     5.0490 ca         1 K9X      -0.102000
     12 C1          93.1320    -8.4890    14.8110 cd         1 K9X      -0.200600
     13 C2          93.8030   -11.9310    10.1040 cc         1 K9X       0.423500
     14 N4          93.3130   -11.2090    11.1130 nd         1 K9X      -0.701000
     15 N5          92.2940    -6.9450    16.1650 nd         1 K9X      -0.504800
     16 N6          93.1360   -12.5950     9.1930 nd         1 K9X      -0.274600
     17 N9          95.1720   -12.0510     9.8980 na         1 K9X      -0.083400
     18 C11         94.0750   -13.1540     8.3770 cd         1 K9X       0.143400
     19 C12         94.1540   -10.6120    11.9160 cc         1 K9X       0.514900
     20 N14         93.5420    -9.8920    12.9300 ns         1 K9X      -0.472400
     21 C16         96.0450   -11.4460    10.7350 cd         1 K9X      -0.051000
     22 O17         95.2710    -8.7300    13.8650 o          1 K9X      -0.567100
     23 C18         93.6910   -13.9790     7.2310 ca         1 K9X      -0.025800
     24 BR19        91.5300   -10.8340    15.5280 br         1 K9X      -0.033100
     25 C23         94.6410   -14.4300     6.3120 ca         1 K9X      -0.085500
     26 C25         94.2640   -15.2120     5.2320 ca         1 K9X      -0.117500
     27 H2          96.2540   -10.2230    12.4380 ha         1 K9X       0.170000
     28 H3          93.6530    -5.2100    15.1110 h1         1 K9X       0.069033
     29 H4          95.0740    -6.2640    15.2290 h1         1 K9X       0.069033
     30 H5          94.1680    -6.1520    13.7070 h1         1 K9X       0.069033
     31 H6          90.3770    -7.1820    17.8680 hc         1 K9X       0.056700
     32 H7          89.5910    -8.4530    16.9300 hc         1 K9X       0.056700
     33 H8          90.7660    -8.8770    18.1670 hc         1 K9X       0.056700
     34 H9          91.6050   -13.9890     7.7390 ha         1 K9X       0.122000
     35 H10         90.9380   -15.3770     5.8240 ha         1 K9X       0.112500
     36 H11         92.6380   -16.1680     4.2040 ha         1 K9X       0.112000
     37 H12         92.5330    -9.9600    12.9050 hn         1 K9X       0.355500
     38 H13         97.0990   -11.5800    10.5400 h4         1 K9X       0.151000
     39 H14         95.6850   -14.1660     6.4300 ha         1 K9X       0.122000
     40 H15         95.0150   -15.5490     4.5290 ha         1 K9X       0.112500
     41 H1          96.3240   -13.0890     8.4190 h4         1 K9X       0.234000
@<TRIPOS>BOND
     1     1     7 1   
     2     1    12 1   
     3     1    15 1   
     4     2     4 1   
     5     2    12 2   
     6     2    24 1   
     7     3    12 1   
     8     3    20 1   
     9     3    22 2   
    10     4     8 1   
    11     4    15 2   
    12     5    17 1   
    13     5    18 2   
    14     5    41 1   
    15     6    19 1   
    16     6    21 2   
    17     6    27 1   
    18     7    28 1   
    19     7    29 1   
    20     7    30 1   
    21     8    31 1   
    22     8    32 1   
    23     8    33 1   
    24     9    10 ar  
    25     9    23 ar  
    26     9    34 1   
    27    10    11 ar  
    28    10    35 1   
    29    11    26 ar  
    30    11    36 1   
    31    13    14 1   
    32    13    16 2   
    33    13    17 1   
    34    14    19 2   
    35    16    18 1   
    36    17    21 1   
    37    18    23 1   
    38    19    20 1   
    39    20    37 1   
    40    21    38 1   
    41    23    25 ar  
    42    25    26 ar  
    43    25    39 1   
    44    26    40 1   
@<TRIPOS>SUBSTRUCTURE
     1 K9X         1 TEMP              0 ****  ****    0 ROOT
