@<TRIPOS>MOLECULE
K9X
   41    44     1     0     0
SMALL
No Charge or Current Charge


@<TRIPOS>ATOM
      1 N3          93.4780    -7.3860    15.7710 na         1 K9X       0.180800
      2 C7          91.9240    -8.7540    15.0330 cc         1 K9X      -0.123900
      3 C8          94.1540    -8.7540    13.6800 c          1 K9X       0.661700
      4 C10         91.5120    -8.0320    16.1690 cc         1 K9X       0.285300
      5 C13         95.1890   -12.4570     8.5040 cc         1 K9X      -0.269100
      6 C15         95.5140   -10.0880    11.2160 cc         1 K9X      -0.210000
      7 C20         94.7170    -6.6160    15.9660 c3         1 K9X       0.067900
      8 C21         90.1550    -8.1930    16.7940 c3         1 K9X      -0.123400
      9 C22         92.3740   -14.7680     7.3720 ca         1 K9X      -0.085500
     10 C24         92.0430   -15.7250     6.3970 ca         1 K9X      -0.117500
     11 C26         92.9750   -16.0720     5.4060 ca         1 K9X      -0.102000
     12 C1          93.2130    -8.3340    14.7660 cd         1 K9X      -0.200600
     13 C2          93.7490   -11.8600    10.1100 cc         1 K9X       0.423500
     14 N4          93.3610   -11.1800    11.1810 nd         1 K9X      -0.701000
     15 N5          92.4150    -7.2030    16.6400 nd         1 K9X      -0.504800
     16 N6          93.1080   -12.7580     9.3960 nd         1 K9X      -0.274600
     17 N9          95.0170   -11.6490     9.6010 na         1 K9X      -0.083400
     18 C11         93.9920   -13.1360     8.3960 cd         1 K9X       0.143400
     19 C12         94.1900   -10.3190    11.7350 cc         1 K9X       0.514900
     20 N14         93.6500    -9.6970    12.8270 ns         1 K9X      -0.472400
     21 C16         95.9730   -10.7690    10.1020 cd         1 K9X      -0.051000
     22 O17         95.2770    -8.2880    13.5720 o          1 K9X      -0.567100
     23 C18         93.6420   -14.1440     7.3700 ca         1 K9X      -0.025800
     24 Br19        90.8310   -10.0250    14.1330 br         1 K9X      -0.033100
     25 C23         94.5700   -14.5030     6.3660 ca         1 K9X      -0.085500
     26 C25         94.2380   -15.4610     5.3920 ca         1 K9X      -0.117500
     27 H2          96.1720    -9.3770    11.6910 ha         1 K9X       0.170000
     28 H3          94.6170    -5.9560    16.8360 h1         1 K9X       0.069033
     29 H4          95.5530    -7.3040    16.1310 h1         1 K9X       0.069033
     30 H5          94.9130    -6.0080    15.0750 h1         1 K9X       0.069033
     31 H6          90.0380    -7.5410    17.6670 hc         1 K9X       0.056700
     32 H7          89.3660    -7.9410    16.0770 hc         1 K9X       0.056700
     33 H8          90.0000    -9.2270    17.1240 hc         1 K9X       0.056700
     34 H9          91.6350   -14.5160     8.1290 ha         1 K9X       0.122000
     35 H10         91.0640   -16.1980     6.4100 ha         1 K9X       0.112500
     36 H11         92.7190   -16.8130     4.6510 ha         1 K9X       0.112000
     37 H12         92.7120    -9.9810    13.0480 hn         1 K9X       0.355500
     38 H13         96.9420   -10.6800     9.6230 h4         1 K9X       0.151000
     39 H14         95.5540   -14.0440     6.3330 ha         1 K9X       0.122000
     40 H15         94.9620   -15.7280     4.6250 ha         1 K9X       0.112500
     41 H1          96.0990   -12.4870     7.9150 h4         1 K9X       0.234000
@<TRIPOS>BOND
     1     1     7 1   
     2     1    12 1   
     3     1    15 1   
     4     2     4 1   
     5     2    12 2   
     6     2    24 1   
     7     3    12 1   
     8     3    20 1   
     9     3    22 2   
    10     4     8 1   
    11     4    15 2   
    12     5    17 1   
    13     5    18 2   
    14     5    41 1   
    15     6    19 1   
    16     6    21 2   
    17     6    27 1   
    18     7    28 1   
    19     7    29 1   
    20     7    30 1   
    21     8    31 1   
    22     8    32 1   
    23     8    33 1   
    24     9    10 ar  
    25     9    23 ar  
    26     9    34 1   
    27    10    11 ar  
    28    10    35 1   
    29    11    26 ar  
    30    11    36 1   
    31    13    14 1   
    32    13    16 2   
    33    13    17 1   
    34    14    19 2   
    35    16    18 1   
    36    17    21 1   
    37    18    23 1   
    38    19    20 1   
    39    20    37 1   
    40    21    38 1   
    41    23    25 ar  
    42    25    26 ar  
    43    25    39 1   
    44    26    40 1   
@<TRIPOS>SUBSTRUCTURE
     1 K9X         1 TEMP              0 ****  ****    0 ROOT
