@<TRIPOS>MOLECULE
K9Y
   63    67     1     0     0
SMALL
abcg2


@<TRIPOS>ATOM
      1 C1          -7.1530     0.0830    -2.3230 ca         1 K9Y       0.181900
      2 N2          -6.0620     0.2410    -1.5990 nb         1 K9Y      -0.213000
      3 C3          -6.3340     0.7140    -0.3870 ca         1 K9Y       0.132500
      4 C4          -7.5900     1.0280     0.1090 ca         1 K9Y      -0.101600
      5 C5          -8.6720     0.8150    -0.7610 ca         1 K9Y       0.449900
      6 N6          -8.4170     0.3360    -1.9810 nb         1 K9Y      -0.300000
      7 N7          -7.5120     1.4940     1.3950 nc         1 K9Y      -0.549100
      8 N8          -5.4680     1.0030     0.6330 na         1 K9Y      -0.179100
      9 C9          -6.2420     1.4610     1.6670 cd         1 K9Y       0.408700
     10 C10         -2.0840    -0.4400     0.2100 ca         1 K9Y      -0.148000
     11 C11         -1.2770     0.6020     0.6750 ca         1 K9Y       0.002000
     12 C12         -1.8930     1.7780     1.1110 ca         1 K9Y      -0.148000
     13 C13         -3.2670     1.9180     1.0820 ca         1 K9Y      -0.070500
     14 C14         -4.0610     0.8720     0.6350 ca         1 K9Y      -0.024200
     15 C15         -3.4610    -0.3000     0.2010 ca         1 K9Y      -0.070500
     16 N16          4.5410    -0.6360     0.0120 na         1 K9Y       0.183000
     17 C17          3.2900    -1.0890     0.2940 cc         1 K9Y       0.016600
     18 C18          3.3580    -2.4560     0.3210 cd         1 K9Y      -0.219000
     19 C19          4.7170    -2.7460     0.0580 cd         1 K9Y       0.279300
     20 N20          5.4150    -1.6470    -0.1080 nc         1 K9Y      -0.505800
     21 C21          5.3400    -4.1110    -0.0560 c3         1 K9Y      -0.072300
     22 C22          4.9820     0.6970    -0.0940 ca         1 K9Y       0.005800
     23 C23          4.2890     1.6130    -0.8750 ca         1 K9Y      -0.109000
     24 C24          4.7360     2.9250    -0.9570 ca         1 K9Y      -0.103500
     25 C25          5.8820     3.3420    -0.2910 ca         1 K9Y      -0.071300
     26 C26          6.5780     2.3980     0.4630 ca         1 K9Y      -0.103500
     27 C27          6.1380     1.0930     0.5710 ca         1 K9Y      -0.109000
     28 C28          6.3600     4.7610    -0.3750 c3         1 K9Y      -0.049800
     29 N29          2.2640    -0.1920     0.5500 ns         1 K9Y      -0.421100
     30 C30          0.9360    -0.4950     0.3890 c          1 K9Y       0.681100
     31 O31          0.5410    -1.5650    -0.0050 o          1 K9Y      -0.580100
     32 C33          6.8510    -4.0060    -0.2580 c3         1 K9Y      -0.080100
     33 C34          5.0540    -4.9070     1.2220 c3         1 K9Y      -0.080100
     34 C35          4.7140    -4.8320    -1.2560 c3         1 K9Y      -0.080100
     35 N36         -9.9360     1.0850    -0.4150 nv         1 K9Y      -1.065900
     36 H1          -7.0120    -0.3050    -3.3250 h5         1 K9Y       0.047100
     37 H2          -5.8020     1.7430     2.6120 h5         1 K9Y       0.068800
     38 H3          -1.6490    -1.3620    -0.1370 ha         1 K9Y       0.135500
     39 H4          -1.2940     2.6050     1.4720 ha         1 K9Y       0.135500
     40 H5          -3.7120     2.8520     1.4010 ha         1 K9Y       0.132000
     41 H6          -4.0670    -1.1240    -0.1510 ha         1 K9Y       0.132000
     42 H7           2.5530    -3.1450     0.5040 ha         1 K9Y       0.166000
     43 H8           3.4260     1.3010    -1.4470 ha         1 K9Y       0.133000
     44 H9           4.1920     3.6260    -1.5780 ha         1 K9Y       0.118000
     45 H10          7.4840     2.6910     0.9800 ha         1 K9Y       0.118000
     46 H11          6.6890     0.3720     1.1590 ha         1 K9Y       0.133000
     47 H12          6.1860     5.2930     0.5620 hc         1 K9Y       0.045367
     48 H13          7.4300     4.8110    -0.5790 hc         1 K9Y       0.045367
     49 H14          5.8480     5.3120    -1.1630 hc         1 K9Y       0.045367
     50 H15          2.5420     0.7170     0.8860 hn         1 K9Y       0.328500
     51 H16          0.5420     1.4020     1.0690 hn         1 K9Y       0.149000
     52 H17          7.3340    -3.4980     0.5770 hc         1 K9Y       0.037033
     53 H18          7.2830    -5.0050    -0.3390 hc         1 K9Y       0.037033
     54 H19          7.1000    -3.4570    -1.1660 hc         1 K9Y       0.037033
     55 H20          3.9830    -5.0150     1.4040 hc         1 K9Y       0.037033
     56 H21          5.4760    -5.9100     1.1470 hc         1 K9Y       0.037033
     57 H22          5.4920    -4.4230     2.0960 hc         1 K9Y       0.037033
     58 H23          4.9120    -4.2930    -2.1840 hc         1 K9Y       0.037033
     59 H24          5.1250    -5.8380    -1.3590 hc         1 K9Y       0.037033
     60 H25          3.6320    -4.9270    -1.1530 hc         1 K9Y       0.037033
     61 H26        -10.1640     1.3850     0.5150 hn         1 K9Y       0.505500
     62 H27        -10.6890     0.8530    -1.0370 hn         1 K9Y       0.505500
     63 N32          0.1120     0.5580     0.7280 ns         1 K9Y      -0.165000
@<TRIPOS>BOND
     1     1     2 ar  
     2     1     6 ar  
     3     1    36 1   
     4     2     3 ar  
     5     3     4 ar  
     6     3     8 1   
     7     4     5 ar  
     8     4     7 1   
     9     5     6 ar  
    10     5    35 1   
    11     7     9 2   
    12     8     9 1   
    13     8    14 1   
    14     9    37 1   
    15    10    11 ar  
    16    10    15 ar  
    17    10    38 1   
    18    11    12 ar  
    19    11    63 1   
    20    12    13 ar  
    21    12    39 1   
    22    13    14 ar  
    23    13    40 1   
    24    14    15 ar  
    25    15    41 1   
    26    16    17 1   
    27    16    20 1   
    28    16    22 1   
    29    17    18 2   
    30    17    29 1   
    31    18    19 1   
    32    18    42 1   
    33    19    20 2   
    34    19    21 1   
    35    21    32 1   
    36    21    33 1   
    37    21    34 1   
    38    22    23 ar  
    39    22    27 ar  
    40    23    24 ar  
    41    23    43 1   
    42    24    25 ar  
    43    24    44 1   
    44    25    26 ar  
    45    25    28 1   
    46    26    27 ar  
    47    26    45 1   
    48    27    46 1   
    49    28    47 1   
    50    28    48 1   
    51    28    49 1   
    52    29    30 1   
    53    29    50 1   
    54    30    31 2   
    55    30    63 1   
    56    32    52 1   
    57    32    53 1   
    58    32    54 1   
    59    33    55 1   
    60    33    56 1   
    61    33    57 1   
    62    34    58 1   
    63    34    59 1   
    64    34    60 1   
    65    35    61 1   
    66    35    62 1   
    67    51    63 1   
@<TRIPOS>SUBSTRUCTURE
     1 K9Y         1 TEMP              0 ****  ****    0 ROOT
