@<TRIPOS>MOLECULE
K9Y
   63    67     1     0     0
SMALL
No Charge or Current Charge


@<TRIPOS>ATOM
      1 C1          -7.5600     0.2840    -2.3090 ca         1 K9Y       0.181900
      2 N2          -6.4290     0.8370    -1.8120 nb         1 K9Y      -0.213000
      3 C3          -6.4340     1.0890    -0.4870 ca         1 K9Y       0.132500
      4 C4          -7.5180     0.8090     0.3100 ca         1 K9Y      -0.101600
      5 C5          -8.6550     0.2400    -0.3020 ca         1 K9Y       0.449900
      6 N6          -8.6810    -0.0290    -1.6160 nb         1 K9Y      -0.300000
      7 N7          -7.2980     1.1240     1.6520 nc         1 K9Y      -0.549100
      8 N8          -5.4930     1.6580     0.3300 na         1 K9Y      -0.179100
      9 C9          -6.0320     1.5880     1.6270 cd         1 K9Y       0.408700
     10 C10         -2.2670    -0.1850     0.1640 ca         1 K9Y      -0.148000
     11 C11         -1.3400     0.8780     0.2330 ca         1 K9Y       0.002000
     12 C12         -1.8260     2.1960     0.3330 ca         1 K9Y      -0.148000
     13 C13         -3.2070     2.4530     0.3640 ca         1 K9Y      -0.070500
     14 C14         -4.1260     1.3920     0.2960 ca         1 K9Y      -0.024200
     15 C15         -3.6500     0.0710     0.1950 ca         1 K9Y      -0.070500
     16 N16          4.6620    -0.6430     0.0590 na         1 K9Y       0.183000
     17 C17          3.3120    -0.9750     0.0660 cc         1 K9Y       0.016600
     18 C18          3.3490    -2.3380     0.0220 cd         1 K9Y      -0.219000
     19 C19          4.7130    -2.7360    -0.0130 cd         1 K9Y       0.279300
     20 N20          5.5400    -1.6990     0.0040 nc         1 K9Y      -0.505800
     21 C21          5.2150    -4.1800    -0.0670 c3         1 K9Y      -0.072300
     22 C22          5.1410     0.6680     0.0460 ca         1 K9Y       0.005800
     23 C23          4.7620     1.5560    -0.9800 ca         1 K9Y      -0.109000
     24 C24          5.2390     2.8790    -0.9870 ca         1 K9Y      -0.103500
     25 C25          6.1010     3.3280     0.0310 ca         1 K9Y      -0.071300
     26 C26          6.4860     2.4400     1.0530 ca         1 K9Y      -0.103500
     27 C27          6.0100     1.1180     1.0600 ca         1 K9Y      -0.109000
     28 C28          6.6200     4.7580     0.0210 c3         1 K9Y      -0.049800
     29 N29          2.2130    -0.1210     0.1280 ns         1 K9Y      -0.421100
     30 C30          0.8670    -0.4340     0.1260 c          1 K9Y       0.681100
     31 O31          0.4430    -1.5790     0.0590 o          1 K9Y      -0.580100
     32 C33          6.7700    -4.2670    -0.0930 c3         1 K9Y      -0.080100
     33 C34          4.7000    -4.9410     1.1830 c3         1 K9Y      -0.080100
     34 C35          4.6620    -4.8600    -1.3470 c3         1 K9Y      -0.080100
     35 N36         -9.7760    -0.0830     0.3970 nv         1 K9Y      -1.065900
     36 H1          -7.5710     0.0720    -3.3770 h5         1 K9Y       0.047100
     37 H2          -5.4440     1.8640     2.4960 h5         1 K9Y       0.068800
     38 H3          -1.9420    -1.2170     0.0860 ha         1 K9Y       0.135500
     39 H4          -1.1290     3.0300     0.3860 ha         1 K9Y       0.135500
     40 H5          -3.5640     3.4790     0.4390 ha         1 K9Y       0.132000
     41 H6          -4.3500    -0.7600     0.1430 ha         1 K9Y       0.132000
     42 H7           2.5010    -3.0110     0.0180 ha         1 K9Y       0.166000
     43 H8           4.1030     1.2200    -1.7780 ha         1 K9Y       0.133000
     44 H9           4.9410     3.5540    -1.7870 ha         1 K9Y       0.118000
     45 H10          7.1570     2.7740     1.8420 ha         1 K9Y       0.118000
     46 H11          6.3130     0.4400     1.8560 ha         1 K9Y       0.133000
     47 H12          6.8080     5.1230     1.0380 hc         1 K9Y       0.045367
     48 H13          7.5590     4.8280    -0.5390 hc         1 K9Y       0.045367
     49 H14          5.9000     5.4420    -0.4450 hc         1 K9Y       0.045367
     50 H15          2.4040     0.8710     0.1870 hn         1 K9Y       0.328500
     51 H16          0.5860     1.5670     0.2570 hn         1 K9Y       0.149000
     52 H17          7.2060    -3.8100     0.8040 hc         1 K9Y       0.037033
     53 H18          7.1030    -5.3110    -0.1310 hc         1 K9Y       0.037033
     54 H19          7.1790    -3.7540    -0.9720 hc         1 K9Y       0.037033
     55 H20          3.6040    -4.9530     1.2170 hc         1 K9Y       0.037033
     56 H21          5.0470    -5.9820     1.1800 hc         1 K9Y       0.037033
     57 H22          5.0610    -4.4650     2.1030 hc         1 K9Y       0.037033
     58 H23          4.9960    -4.3260    -2.2450 hc         1 K9Y       0.037033
     59 H24          5.0070    -5.8990    -1.4220 hc         1 K9Y       0.037033
     60 H25          3.5650    -4.8700    -1.3490 hc         1 K9Y       0.037033
     61 H26         -9.6910    -0.0980     1.4110 hn         1 K9Y       0.505500
     62 H27        -10.4250    -0.7480    -0.0150 hn         1 K9Y       0.505500
     63 N32          0.0710     0.6990     0.2070 ns         1 K9Y      -0.165000
@<TRIPOS>BOND
     1     1     2 ar  
     2     1     6 ar  
     3     1    36 1   
     4     2     3 ar  
     5     3     4 ar  
     6     3     8 1   
     7     4     5 ar  
     8     4     7 1   
     9     5     6 ar  
    10     5    35 1   
    11     7     9 2   
    12     8     9 1   
    13     8    14 1   
    14     9    37 1   
    15    10    11 ar  
    16    10    15 ar  
    17    10    38 1   
    18    11    12 ar  
    19    11    63 1   
    20    12    13 ar  
    21    12    39 1   
    22    13    14 ar  
    23    13    40 1   
    24    14    15 ar  
    25    15    41 1   
    26    16    17 1   
    27    16    20 1   
    28    16    22 1   
    29    17    18 2   
    30    17    29 1   
    31    18    19 1   
    32    18    42 1   
    33    19    20 2   
    34    19    21 1   
    35    21    32 1   
    36    21    33 1   
    37    21    34 1   
    38    22    23 ar  
    39    22    27 ar  
    40    23    24 ar  
    41    23    43 1   
    42    24    25 ar  
    43    24    44 1   
    44    25    26 ar  
    45    25    28 1   
    46    26    27 ar  
    47    26    45 1   
    48    27    46 1   
    49    28    47 1   
    50    28    48 1   
    51    28    49 1   
    52    29    30 1   
    53    29    50 1   
    54    30    31 2   
    55    30    63 1   
    56    32    52 1   
    57    32    53 1   
    58    32    54 1   
    59    33    55 1   
    60    33    56 1   
    61    33    57 1   
    62    34    58 1   
    63    34    59 1   
    64    34    60 1   
    65    35    61 1   
    66    35    62 1   
    67    51    63 1   
@<TRIPOS>SUBSTRUCTURE
     1 K9Y         1 TEMP              0 ****  ****    0 ROOT
