@<TRIPOS>MOLECULE
KA0
   47    50     1     0     0
SMALL
No Charge or Current Charge


@<TRIPOS>ATOM
      1 C1          57.2410    49.1640    16.2570 c3         1 KA0       0.284100
      2 O1          58.5960    53.9700    16.5070 os         1 KA0      -0.341100
      3 C2          57.4120    50.4930    16.9870 ca         1 KA0      -0.120300
      4 C3          57.0340    50.6180    18.3490 ca         1 KA0      -0.104000
      5 C4          57.1930    51.8450    19.0290 ca         1 KA0      -0.100000
      6 C5          57.7350    52.9240    18.3210 ca         1 KA0       0.061100
      7 C17         61.2310    47.8400    13.7520 c          1 KA0       0.633600
      8 C11         60.6520    48.5410    12.6400 cc         1 KA0      -0.371600
      9 C12         61.1700    48.7270    11.3590 cc         1 KA0       0.324900
     10 N2          60.3740    49.4260    10.5660 nd         1 KA0      -0.520800
     11 N3          59.2710    49.7090    11.3920 na         1 KA0       0.117800
     12 C13         58.0910    50.4970    10.9080 c3         1 KA0       0.131000
     13 C16         57.9130    51.7710    11.7770 c3         1 KA0      -0.098767
     14 C15         58.2630    50.9500     9.4280 c3         1 KA0      -0.098767
     15 C14         56.8080    49.6280    10.9950 c3         1 KA0      -0.098767
     16 C10         59.4600    49.1540    12.6720 cd         1 KA0       0.190400
     17 N1          58.6730    49.1580    13.8170 nd         1 KA0      -0.732100
     18 N4          60.4170    47.8850    14.8230 ns         1 KA0      -0.458400
     19 C9          59.2080    48.5120    14.8520 cc         1 KA0       0.756800
     20 N           58.5270    48.4520    16.0510 nh         1 KA0      -0.760600
     21 C           59.0650    47.7500    17.2440 c3         1 KA0       0.202100
     22 C8          57.9550    51.6090    16.3070 ca         1 KA0      -0.077000
     23 C7          58.1020    52.8100    17.0100 ca         1 KA0       0.050100
     24 C6          58.5670    54.8680    17.6730 c5         1 KA0       0.372600
     25 O           57.9500    54.1700    18.8140 os         1 KA0      -0.342100
     26 H1          56.7190    49.3490    15.3090 h1         1 KA0       0.074700
     27 H2          56.5600    48.5270    16.8390 h1         1 KA0       0.074700
     28 H3          56.6180    49.7650    18.8810 ha         1 KA0       0.116000
     29 H4          56.9040    51.9520    20.0710 ha         1 KA0       0.136000
     30 H5          62.1160    48.3700    10.9710 h4         1 KA0       0.048100
     31 H6          57.6930    51.5160    12.8200 hc         1 KA0       0.048589
     32 H7          58.8240    52.3810    11.7620 hc         1 KA0       0.048589
     33 H8          57.0850    52.3870    11.4060 hc         1 KA0       0.048589
     34 H9          57.3920    51.5240     9.0890 hc         1 KA0       0.048589
     35 H10         59.1480    51.5870     9.3100 hc         1 KA0       0.048589
     36 H11         58.3710    50.0860     8.7600 hc         1 KA0       0.048589
     37 H12         56.5880    49.3400    12.0300 hc         1 KA0       0.048589
     38 H13         55.9370    50.1730    10.6110 hc         1 KA0       0.048589
     39 H14         56.9210    48.7100    10.4060 hc         1 KA0       0.048589
     40 H15         60.7420    47.4210    15.6510 hn         1 KA0       0.325500
     41 H16         58.3690    47.8120    18.0900 h1         1 KA0       0.049033
     42 H17         59.2310    46.6870    17.0250 h1         1 KA0       0.049033
     43 H18         60.0150    48.2010    17.5600 h1         1 KA0       0.049033
     44 H19         58.2560    51.5410    15.2650 ha         1 KA0       0.148000
     45 H20         59.5940    55.1480    17.9370 h2         1 KA0       0.066700
     46 H21         57.9840    55.7640    17.4320 h2         1 KA0       0.066700
     47 O2          62.3110    47.2730    13.7530 o          1 KA0      -0.540000
@<TRIPOS>BOND
     1     1     3 1   
     2     1    20 1   
     3     1    26 1   
     4     1    27 1   
     5     2    23 1   
     6     2    24 1   
     7     3     4 ar  
     8     3    22 ar  
     9     4     5 ar  
    10     4    28 1   
    11     5     6 ar  
    12     5    29 1   
    13     6    23 ar  
    14     6    25 1   
    15     7     8 1   
    16     7    18 1   
    17     7    47 2   
    18     8     9 1   
    19     8    16 2   
    20     9    10 2   
    21     9    30 1   
    22    10    11 1   
    23    11    12 1   
    24    11    16 1   
    25    12    13 1   
    26    12    14 1   
    27    12    15 1   
    28    13    31 1   
    29    13    32 1   
    30    13    33 1   
    31    14    34 1   
    32    14    35 1   
    33    14    36 1   
    34    15    37 1   
    35    15    38 1   
    36    15    39 1   
    37    16    17 1   
    38    17    19 2   
    39    18    19 1   
    40    18    40 1   
    41    19    20 1   
    42    20    21 1   
    43    21    41 1   
    44    21    42 1   
    45    21    43 1   
    46    22    23 ar  
    47    22    44 1   
    48    24    25 1   
    49    24    45 1   
    50    24    46 1   
@<TRIPOS>SUBSTRUCTURE
     1 KA0         1 TEMP              0 ****  ****    0 ROOT
