@<TRIPOS>MOLECULE
KA0
   47    50     1     0     0
SMALL
bcc


@<TRIPOS>ATOM
      1 C1          57.3170    49.2080    16.1030 c3         1 KA0       0.284100
      2 O1          59.0380    53.8140    16.8100 os         1 KA0      -0.317900
      3 C2          57.4290    50.5100    16.8550 ca         1 KA0      -0.120300
      4 C3          56.7240    50.6980    18.0330 ca         1 KA0      -0.122000
      5 C4          56.7940    51.8970    18.7580 ca         1 KA0      -0.118000
      6 C5          57.6010    52.8790    18.2470 ca         1 KA0       0.061100
      7 C17         61.2880    47.7770    13.6290 c          1 KA0       0.776100
      8 C11         60.7350    48.4620    12.5090 cc         1 KA0      -0.436900
      9 C12         61.1110    48.6930    11.1730 cc         1 KA0       0.390200
     10 N2          60.2080    49.4140    10.5620 nd         1 KA0      -0.520800
     11 N3          59.2310    49.6720    11.4590 na         1 KA0       0.096400
     12 C13         58.0520    50.4810    11.0900 c3         1 KA0       0.101700
     13 C16         58.0240    51.7460    11.9490 c3         1 KA0      -0.098767
     14 C15         58.1470    50.8710     9.6180 c3         1 KA0      -0.098767
     15 C14         56.7860    49.6520    11.3060 c3         1 KA0      -0.098767
     16 C10         59.5130    49.1140    12.6530 cd         1 KA0       0.241100
     17 N1          58.7640    49.1810    13.7660 nd         1 KA0      -0.732100
     18 N4          60.4560    47.8780    14.7500 ns         1 KA0      -0.525400
     19 C9          59.2610    48.5460    14.8000 cc         1 KA0       0.756800
     20 N           58.5950    48.5280    15.9690 nh         1 KA0      -0.760600
     21 C           59.1680    47.9510    17.1700 c3         1 KA0       0.202100
     22 C8          58.2520    51.5330    16.3520 ca         1 KA0      -0.095000
     23 C7          58.3140    52.6980    17.0700 ca         1 KA0       0.050100
     24 C6          58.6030    54.7930    17.7420 c5         1 KA0       0.326200
     25 O           57.8680    54.1090    18.7480 os         1 KA0      -0.318900
     26 H1          56.9090    49.3710    15.1080 h1         1 KA0       0.074700
     27 H2          56.6310    48.5390    16.6260 h1         1 KA0       0.074700
     28 H3          56.0970    49.8980    18.4090 ha         1 KA0       0.134000
     29 H4          56.2420    52.0300    19.6780 ha         1 KA0       0.154000
     30 H5          61.9960    48.3620    10.6500 h4         1 KA0       0.048100
     31 H6          57.9230    51.5140    13.0080 hc         1 KA0       0.048589
     32 H7          58.9320    52.3340    11.8080 hc         1 KA0       0.048589
     33 H8          57.1740    52.3650    11.6600 hc         1 KA0       0.048589
     34 H9          57.2620    51.4560     9.3670 hc         1 KA0       0.048589
     35 H10         59.0240    51.4810     9.4090 hc         1 KA0       0.048589
     36 H11         58.1690    49.9990     8.9670 hc         1 KA0       0.048589
     37 H12         56.6520    49.3770    12.3510 hc         1 KA0       0.048589
     38 H13         55.9150    50.2320    10.9980 hc         1 KA0       0.048589
     39 H14         56.8110    48.7410    10.7060 hc         1 KA0       0.048589
     40 H15         60.7950    47.3950    15.5710 hn         1 KA0       0.325500
     41 H16         58.4740    48.1060    17.9910 h1         1 KA0       0.049033
     42 H17         59.3230    46.8740    17.0730 h1         1 KA0       0.049033
     43 H18         60.1110    48.4260    17.4470 h1         1 KA0       0.049033
     44 H19         58.8100    51.4080    15.4330 ha         1 KA0       0.166000
     45 H20         59.4650    55.2890    18.1880 h2         1 KA0       0.066700
     46 H21         57.9570    55.5230    17.2410 h2         1 KA0       0.066700
     47 O2          62.3350    47.1580    13.6960 o          1 KA0      -0.615500
@<TRIPOS>BOND
     1     1     3 1   
     2     1    20 1   
     3     1    26 1   
     4     1    27 1   
     5     2    23 1   
     6     2    24 1   
     7     3     4 ar  
     8     3    22 ar  
     9     4     5 ar  
    10     4    28 1   
    11     5     6 ar  
    12     5    29 1   
    13     6    23 ar  
    14     6    25 1   
    15     7     8 1   
    16     7    18 1   
    17     7    47 2   
    18     8     9 1   
    19     8    16 2   
    20     9    10 2   
    21     9    30 1   
    22    10    11 1   
    23    11    12 1   
    24    11    16 1   
    25    12    13 1   
    26    12    14 1   
    27    12    15 1   
    28    13    31 1   
    29    13    32 1   
    30    13    33 1   
    31    14    34 1   
    32    14    35 1   
    33    14    36 1   
    34    15    37 1   
    35    15    38 1   
    36    15    39 1   
    37    16    17 1   
    38    17    19 2   
    39    18    19 1   
    40    18    40 1   
    41    19    20 1   
    42    20    21 1   
    43    21    41 1   
    44    21    42 1   
    45    21    43 1   
    46    22    23 ar  
    47    22    44 1   
    48    24    25 1   
    49    24    45 1   
    50    24    46 1   
@<TRIPOS>SUBSTRUCTURE
     1 KA0         1 TEMP              0 ****  ****    0 ROOT
