@<TRIPOS>MOLECULE
KA2
   53    56     1     0     0
SMALL
No Charge or Current Charge


@<TRIPOS>ATOM
      1 C1           4.1800     1.5780     1.7490 c3         1 KA2      -0.083767
      2 C2           3.1770     2.4690     0.9630 c3         1 KA2      -0.206000
      3 C3           1.8320     2.5330     1.7440 c3         1 KA2      -0.083767
      4 C4           3.7620     3.9040     0.8330 c3         1 KA2      -0.083767
      5 S5           2.8890     1.7850    -0.7400 sy         1 KA2       1.018500
      6 O6           1.8530     2.6240    -1.3610 o          1 KA2      -0.520000
      7 O7           4.2030     1.6440    -1.3830 o          1 KA2      -0.520000
      8 C8           2.1560     0.1130    -0.4610 ca         1 KA2      -0.290500
      9 C9           0.7370    -0.0340    -0.4310 ca         1 KA2       0.064000
     10 C10          0.1350    -1.2900    -0.2210 ca         1 KA2      -0.238000
     11 C11         -1.2660    -1.4730    -0.1790 ca         1 KA2       0.425900
     12 N12         -2.1580    -0.4270    -0.4130 nu         1 KA2      -0.933900
     13 C13         -3.5160    -0.2300    -0.1180 ca         1 KA2       0.292000
     14 C14         -4.1410    -0.8770     0.9730 ca         1 KA2      -0.089000
     15 C15         -5.5010    -0.6480     1.2550 ca         1 KA2      -0.056000
     16 C16         -6.2130     0.2390     0.4370 ca         1 KA2      -0.198000
     17 S17         -7.9070     0.6660     0.6150 ss         1 KA2       0.033800
     18 C18         -7.6490     1.7130    -0.7980 cc         1 KA2       0.389100
     19 N19         -6.4270     1.7500    -1.3540 nd         1 KA2      -0.523100
     20 C20         -5.6170     0.8900    -0.6230 ca         1 KA2       0.105400
     21 C21         -4.2620     0.6670    -0.9090 ca         1 KA2      -0.096000
     22 N22         -1.8100    -2.6820     0.0330 nb         1 KA2      -0.285000
     23 C23         -0.9550    -3.7040     0.2120 ca         1 KA2       0.191900
     24 N24          0.3900    -3.6370     0.1920 nb         1 KA2      -0.223000
     25 C25          0.9450    -2.4280    -0.0260 ca         1 KA2       0.129000
     26 C26          2.3380    -2.2910    -0.0570 ca         1 KA2      -0.235000
     27 C27          2.9600    -1.0420    -0.2730 ca         1 KA2       0.258100
     28 O28          4.3420    -0.9480    -0.2850 os         1 KA2      -0.321100
     29 C29          5.2150    -2.0860    -0.1290 c3         1 KA2       0.164600
     30 C30          6.6830    -1.6000    -0.2020 c3         1 KA2       0.160600
     31 O31          7.0430    -0.8360     0.9640 oh         1 KA2      -0.656000
     32 H1           4.4010     2.0140     2.7310 hc         1 KA2       0.053144
     33 H2           3.7750     0.5740     1.9200 hc         1 KA2       0.053144
     34 H3           5.1300     1.4770     1.2100 hc         1 KA2       0.053144
     35 H4           1.9800     2.9720     2.7390 hc         1 KA2       0.053144
     36 H5           1.0920     3.1480     1.2180 hc         1 KA2       0.053144
     37 H6           1.4040     1.5330     1.8870 hc         1 KA2       0.053144
     38 H7           4.7170     3.8950     0.2920 hc         1 KA2       0.053144
     39 H8           3.0750     4.5660     0.2920 hc         1 KA2       0.053144
     40 H9           3.9430     4.3460     1.8210 hc         1 KA2       0.053144
     41 H10          0.1200     0.8520    -0.5600 ha         1 KA2       0.135000
     42 H11         -1.7650     0.3000    -1.0070 hn         1 KA2       0.508000
     43 H12         -3.5750    -1.5450     1.6130 ha         1 KA2       0.139000
     44 H13         -5.9850    -1.1460     2.0940 ha         1 KA2       0.129000
     45 H14         -8.4900     2.2890    -1.1630 h5         1 KA2       0.059800
     46 H15         -3.7970     1.1810    -1.7440 ha         1 KA2       0.136000
     47 H16         -1.3930    -4.6850     0.3870 h5         1 KA2       0.048100
     48 H17          2.9290    -3.1880     0.0960 ha         1 KA2       0.141000
     49 H18          5.0460    -2.5850     0.8330 h1         1 KA2       0.052700
     50 H19          5.0420    -2.8110    -0.9340 h1         1 KA2       0.052700
     51 H20          7.3350    -2.4800    -0.2880 h1         1 KA2       0.039200
     52 H21          6.8160    -1.0020    -1.1130 h1         1 KA2       0.039200
     53 H22          7.9670    -0.5280     0.8320 ho         1 KA2       0.450000
@<TRIPOS>BOND
     1     1     2 1   
     2     1    32 1   
     3     1    33 1   
     4     1    34 1   
     5     2     3 1   
     6     2     4 1   
     7     2     5 1   
     8     3    35 1   
     9     3    36 1   
    10     3    37 1   
    11     4    38 1   
    12     4    39 1   
    13     4    40 1   
    14     5     6 2   
    15     5     7 2   
    16     5     8 1   
    17     8     9 ar  
    18     8    27 ar  
    19     9    10 ar  
    20     9    41 1   
    21    10    11 ar  
    22    10    25 ar  
    23    11    12 1   
    24    11    22 ar  
    25    12    13 1   
    26    12    42 1   
    27    13    14 ar  
    28    13    21 ar  
    29    14    15 ar  
    30    14    43 1   
    31    15    16 ar  
    32    15    44 1   
    33    16    17 1   
    34    16    20 ar  
    35    17    18 1   
    36    18    19 2   
    37    18    45 1   
    38    19    20 1   
    39    20    21 ar  
    40    21    46 1   
    41    22    23 ar  
    42    23    24 ar  
    43    23    47 1   
    44    24    25 ar  
    45    25    26 ar  
    46    26    27 ar  
    47    26    48 1   
    48    27    28 1   
    49    28    29 1   
    50    29    30 1   
    51    29    49 1   
    52    29    50 1   
    53    30    31 1   
    54    30    51 1   
    55    30    52 1   
    56    31    53 1   
@<TRIPOS>SUBSTRUCTURE
     1 KA2         1 TEMP              0 ****  ****    0 ROOT
