@<TRIPOS>MOLECULE
KA2
   53    56     1     0     0
SMALL
abcg2


@<TRIPOS>ATOM
      1 C1           4.2280     1.4570     1.7890 c3         1 KA2      -0.083767
      2 C2           3.3120     2.4350     1.0680 c3         1 KA2      -0.206000
      3 C3           2.0320     2.6610     1.8630 c3         1 KA2      -0.083767
      4 C4           4.0300     3.7560     0.7940 c3         1 KA2      -0.083767
      5 S5           2.8600     1.7850    -0.5880 sy         1 KA2       1.018500
      6 O6           1.7800     2.6320    -1.1050 o          1 KA2      -0.520000
      7 O7           4.0600     1.6600    -1.4090 o          1 KA2      -0.520000
      8 C8           2.1410     0.1690    -0.3270 ca         1 KA2      -0.290500
      9 C9           0.7730     0.1050    -0.2530 ca         1 KA2       0.064000
     10 C10          0.1160    -1.1190    -0.0710 ca         1 KA2      -0.238000
     11 C11         -1.3070    -1.2840     0.0270 ca         1 KA2       0.425900
     12 N12         -2.1230    -0.2180    -0.0960 nu         1 KA2      -0.933900
     13 C13         -3.5230    -0.1950     0.0100 ca         1 KA2       0.292000
     14 C14         -4.2030    -0.9190     1.0040 ca         1 KA2      -0.089000
     15 C15         -5.5750    -0.8380     1.1230 ca         1 KA2      -0.056000
     16 C16         -6.2730    -0.0120     0.2490 ca         1 KA2      -0.198000
     17 S17         -7.9680     0.3100     0.1480 ss         1 KA2       0.033800
     18 C18         -7.6430     1.3860    -1.1730 cc         1 KA2       0.389100
     19 N19         -6.4140     1.5140    -1.5230 nd         1 KA2      -0.523100
     20 C20         -5.6030     0.7310    -0.7340 ca         1 KA2       0.105400
     21 C21         -4.2190     0.6310    -0.8570 ca         1 KA2      -0.096000
     22 N22         -1.8300    -2.4750     0.2350 nb         1 KA2      -0.285000
     23 C23         -0.9910    -3.5120     0.3290 ca         1 KA2       0.191900
     24 N24          0.3100    -3.5090     0.2370 nb         1 KA2      -0.223000
     25 C25          0.8860    -2.2960     0.0360 ca         1 KA2       0.129000
     26 C26          2.2850    -2.2250    -0.0590 ca         1 KA2      -0.235000
     27 C27          2.9240    -1.0170    -0.2420 ca         1 KA2       0.258100
     28 O28          4.2370    -0.8780    -0.3380 os         1 KA2      -0.321100
     29 C29          5.0800    -2.0170    -0.2250 c3         1 KA2       0.164600
     30 C30          6.5060    -1.5710    -0.4030 c3         1 KA2       0.160600
     31 O31          6.8850    -0.7580     0.6800 oh         1 KA2      -0.656000
     32 H1           4.5430     1.9260     2.7220 hc         1 KA2       0.053144
     33 H2           3.7110     0.5350     2.0550 hc         1 KA2       0.053144
     34 H3           5.1200     1.2050     1.2210 hc         1 KA2       0.053144
     35 H4           2.3040     3.0740     2.8360 hc         1 KA2       0.053144
     36 H5           1.3590     3.3650     1.3780 hc         1 KA2       0.053144
     37 H6           1.4950     1.7300     2.0500 hc         1 KA2       0.053144
     38 H7           4.9620     3.6110     0.2490 hc         1 KA2       0.053144
     39 H8           3.4050     4.4600     0.2430 hc         1 KA2       0.053144
     40 H9           4.2770     4.2140     1.7520 hc         1 KA2       0.053144
     41 H10          0.2130     1.0270    -0.3310 ha         1 KA2       0.135000
     42 H11         -1.7170     0.6350    -0.4460 hn         1 KA2       0.508000
     43 H12         -3.6510    -1.5380     1.6940 ha         1 KA2       0.139000
     44 H13         -6.0860    -1.3980     1.8940 ha         1 KA2       0.129000
     45 H14         -8.4600     1.9090    -1.6520 h5         1 KA2       0.059800
     46 H15         -3.7040     1.1940    -1.6250 ha         1 KA2       0.136000
     47 H16         -1.4640    -4.4740     0.4960 h5         1 KA2       0.048100
     48 H17          2.8390    -3.1500     0.0180 ha         1 KA2       0.141000
     49 H18          4.9410    -2.4980     0.7490 h1         1 KA2       0.052700
     50 H19          4.8410    -2.7490    -1.0030 h1         1 KA2       0.052700
     51 H20          7.1170    -2.4810    -0.4670 h1         1 KA2       0.039200
     52 H21          6.6040    -1.0520    -1.3650 h1         1 KA2       0.039200
     53 H22          7.7670    -0.4180     0.5050 ho         1 KA2       0.450000
@<TRIPOS>BOND
     1     1     2 1   
     2     1    32 1   
     3     1    33 1   
     4     1    34 1   
     5     2     3 1   
     6     2     4 1   
     7     2     5 1   
     8     3    35 1   
     9     3    36 1   
    10     3    37 1   
    11     4    38 1   
    12     4    39 1   
    13     4    40 1   
    14     5     6 2   
    15     5     7 2   
    16     5     8 1   
    17     8     9 ar  
    18     8    27 ar  
    19     9    10 ar  
    20     9    41 1   
    21    10    11 ar  
    22    10    25 ar  
    23    11    12 1   
    24    11    22 ar  
    25    12    13 1   
    26    12    42 1   
    27    13    14 ar  
    28    13    21 ar  
    29    14    15 ar  
    30    14    43 1   
    31    15    16 ar  
    32    15    44 1   
    33    16    17 1   
    34    16    20 ar  
    35    17    18 1   
    36    18    19 2   
    37    18    45 1   
    38    19    20 1   
    39    20    21 ar  
    40    21    46 1   
    41    22    23 ar  
    42    23    24 ar  
    43    23    47 1   
    44    24    25 ar  
    45    25    26 ar  
    46    26    27 ar  
    47    26    48 1   
    48    27    28 1   
    49    28    29 1   
    50    29    30 1   
    51    29    49 1   
    52    29    50 1   
    53    30    31 1   
    54    30    51 1   
    55    30    52 1   
    56    31    53 1   
@<TRIPOS>SUBSTRUCTURE
     1 KA2         1 TEMP              0 ****  ****    0 ROOT
