@<TRIPOS>MOLECULE
KA4
   43    45     1     0     0
SMALL
No Charge or Current Charge


@<TRIPOS>ATOM
      1 N1           8.9770    -0.0500     2.4160 nv         1 KA4      -1.064900
      2 N3           7.1090    -1.0980     1.6110 nb         1 KA4      -0.252500
      3 C4           5.9030    -0.9940     1.0180 ca         1 KA4       0.186400
      4 C5           5.3730     0.2560     0.6460 ca         1 KA4      -0.171000
      5 C6           6.1540     1.3950     0.9190 ca         1 KA4       0.186400
      6 C8           4.0920     0.3650     0.0160 cg         1 KA4      -0.030000
      7 C10          1.7030     0.5680    -1.1160 ca         1 KA4      -0.032000
      8 C13         -0.0270     1.9250    -2.1750 ca         1 KA4      -0.168000
      9 C15         -0.4140    -0.4670    -1.8450 ca         1 KA4       0.184000
     10 C20         -3.4520    -0.6980    -0.5750 ca         1 KA4      -0.258500
     11 C21         -4.2840     0.4070    -0.8580 ca         1 KA4      -0.006000
     12 C22         -4.7170     1.2470     0.1750 ca         1 KA4       0.091000
     13 C24         -4.3270     0.9980     1.4980 ca         1 KA4      -0.024000
     14 C28         -3.0530    -0.9500     0.7600 ca         1 KA4       0.201000
     15 C2           7.7650     0.0530     1.8210 ca         1 KA4       0.396900
     16 N7           7.3610     1.2940     1.5120 nb         1 KA4      -0.252500
     17 C9           2.9950     0.4550    -0.5110 ch         1 KA4      -0.129000
     18 C11          1.2390     1.8140    -1.5820 ca         1 KA4       0.224000
     19 F12          2.0070     2.9240    -1.4680 f          1 KA4      -0.156000
     20 C14         -0.8500     0.7930    -2.3070 ca         1 KA4      -0.039000
     21 N16         -1.2310    -1.6090    -1.9570 nu         1 KA4      -0.918100
     22 S17         -2.9060    -1.7310    -1.9420 sy         1 KA4       1.171600
     23 O18         -3.1110    -3.1440    -1.6200 o          1 KA4      -0.526500
     24 O19         -3.3280    -1.1590    -3.2220 o          1 KA4      -0.526500
     25 Cl1         -5.7510     2.6240    -0.1890 cl         1 KA4      -0.179000
     26 C25         -3.4940    -0.1020     1.8070 ca         1 KA4      -0.094300
     27 O27         -3.6640     0.4920     4.2040 oh         1 KA4      -0.660000
     28 Cl2         -1.9770    -2.3010     1.1570 cl         1 KA4      -0.163000
     29 C30          0.8720    -0.5660    -1.2530 ca         1 KA4       0.218000
     30 F31          1.3010    -1.7730    -0.8010 f          1 KA4      -0.151000
     31 H1           9.2200    -0.9290     2.8690 hn         1 KA4       0.509000
     32 H2           9.4060     0.7910     2.7990 hn         1 KA4       0.509000
     33 H3           5.3600    -1.9220     0.8410 h4         1 KA4       0.031100
     34 H4           5.8150     2.3980     0.6620 h4         1 KA4       0.031100
     35 H5          -0.3700     2.8920    -2.5340 ha         1 KA4       0.145000
     36 H6          -4.6020     0.6250    -1.8770 ha         1 KA4       0.165000
     37 H7          -4.6780     1.6710     2.2750 ha         1 KA4       0.157000
     38 H8          -3.2950    -1.4260     3.4960 h1         1 KA4       0.040700
     39 H9          -1.9560    -0.2850     3.3030 h1         1 KA4       0.040700
     40 H10         -1.8210     0.9050    -2.7780 ha         1 KA4       0.136000
     41 H11         -0.9070    -2.4570    -1.5050 hn         1 KA4       0.517000
     42 H12         -3.3220     0.2320     5.0890 ho         1 KA4       0.456000
     43 C26         -3.0490    -0.3840     3.2490 c3         1 KA4       0.208900
@<TRIPOS>BOND
     1     1    15 1   
     2     1    31 1   
     3     1    32 1   
     4     2     3 ar  
     5     2    15 ar  
     6     3     4 ar  
     7     3    33 1   
     8     4     5 ar  
     9     4     6 1   
    10     5    16 ar  
    11     5    34 1   
    12     6    17 3   
    13     7    17 1   
    14     7    18 ar  
    15     7    29 ar  
    16     8    18 ar  
    17     8    20 ar  
    18     8    35 1   
    19     9    20 ar  
    20     9    21 1   
    21     9    29 ar  
    22    10    11 ar  
    23    10    14 ar  
    24    10    22 1   
    25    11    12 ar  
    26    11    36 1   
    27    12    13 ar  
    28    12    25 1   
    29    13    26 ar  
    30    13    37 1   
    31    14    26 ar  
    32    14    28 1   
    33    15    16 ar  
    34    18    19 1   
    35    20    40 1   
    36    21    22 1   
    37    21    41 1   
    38    22    23 2   
    39    22    24 2   
    40    26    43 1   
    41    27    42 1   
    42    27    43 1   
    43    29    30 1   
    44    38    43 1   
    45    39    43 1   
@<TRIPOS>SUBSTRUCTURE
     1 KA4         1 TEMP              0 ****  ****    0 ROOT
