@<TRIPOS>MOLECULE
KA4
   43    45     1     0     0
SMALL
abcg2


@<TRIPOS>ATOM
      1 N1           9.8760     0.0500    -1.1550 nv         1 KA4      -1.064900
      2 N3           7.7840    -0.8730    -1.1970 nb         1 KA4      -0.252500
      3 C4           6.5180    -0.7810    -0.8610 ca         1 KA4       0.186400
      4 C5           5.9990     0.2960    -0.1360 ca         1 KA4      -0.171000
      5 C6           6.9300     1.2810     0.2100 ca         1 KA4       0.186400
      6 C8           4.6350     0.3820     0.2200 cg         1 KA4      -0.030000
      7 C10          2.1000     0.5340     0.8700 ca         1 KA4      -0.032000
      8 C13          0.1840     1.8320     1.6270 ca         1 KA4      -0.168000
      9 C15         -0.0760    -0.5220     1.1510 ca         1 KA4       0.184000
     10 C20         -3.0140    -0.8570    -0.3240 ca         1 KA4      -0.258500
     11 C21         -3.0550     0.1130    -1.3140 ca         1 KA4      -0.006000
     12 C22         -4.1000     1.0180    -1.3080 ca         1 KA4       0.091000
     13 C24         -5.0880     0.9720    -0.3410 ca         1 KA4      -0.024000
     14 C28         -4.0070    -0.9180     0.6500 ca         1 KA4       0.201000
     15 C2           8.5890     0.1300    -0.8120 ca         1 KA4       0.396900
     16 N7           8.2000     1.2100    -0.1160 nb         1 KA4      -0.252500
     17 C9           3.4680     0.4530     0.5210 ch         1 KA4      -0.129000
     18 C11          1.5150     1.7310     1.2850 ca         1 KA4       0.224000
     19 F12          2.2960     2.8060     1.3490 f          1 KA4      -0.156000
     20 C14         -0.6060     0.6950     1.5640 ca         1 KA4      -0.039000
     21 N16         -0.8960    -1.6680     1.0760 nu         1 KA4      -0.918100
     22 S17         -1.6500    -2.0030    -0.3570 sy         1 KA4       1.171600
     23 O18         -2.1390    -3.3640    -0.2690 o          1 KA4      -0.526500
     24 O19         -0.8110    -1.6130    -1.4750 o          1 KA4      -0.526500
     25 CL1         -4.1670     2.2350    -2.5310 cl         1 KA4      -0.179000
     26 C25         -5.0530     0.0030     0.6540 ca         1 KA4      -0.094300
     27 O27         -7.0430     0.9730     1.5090 oh         1 KA4      -0.660000
     28 CL2         -3.9580    -2.1080     1.8940 cl         1 KA4      -0.163000
     29 C30          1.2650    -0.5770     0.8030 ca         1 KA4       0.218000
     30 F31          1.7880    -1.7310     0.4100 f          1 KA4      -0.151000
     31 H1          10.2230    -0.7550    -1.6440 hn         1 KA4       0.509000
     32 H2          10.5290     0.7530    -0.8570 hn         1 KA4       0.509000
     33 H3           5.8680    -1.5910    -1.1740 h4         1 KA4       0.031100
     34 H4           6.6160     2.1530     0.7740 h4         1 KA4       0.031100
     35 H5          -0.2280     2.7790     1.9470 ha         1 KA4       0.145000
     36 H6          -2.2860     0.1670    -2.0700 ha         1 KA4       0.165000
     37 H7          -5.8900     1.6960    -0.3560 ha         1 KA4       0.157000
     38 H8          -6.5870    -1.0430     1.6920 h1         1 KA4       0.040700
     39 H9          -5.6280     0.0340     2.7000 h1         1 KA4       0.040700
     40 H10         -1.6490     0.7470     1.8450 ha         1 KA4       0.136000
     41 H11         -0.6220    -2.4950     1.5960 hn         1 KA4       0.517000
     42 H12         -7.6460     0.9890     2.2570 ho         1 KA4       0.456000
     43 C26         -6.1150    -0.0520     1.7190 c3         1 KA4       0.208900
@<TRIPOS>BOND
     1     1    15 1   
     2     1    31 1   
     3     1    32 1   
     4     2     3 ar  
     5     2    15 ar  
     6     3     4 ar  
     7     3    33 1   
     8     4     5 ar  
     9     4     6 1   
    10     5    16 ar  
    11     5    34 1   
    12     6    17 3   
    13     7    17 1   
    14     7    18 ar  
    15     7    29 ar  
    16     8    18 ar  
    17     8    20 ar  
    18     8    35 1   
    19     9    20 ar  
    20     9    21 1   
    21     9    29 ar  
    22    10    11 ar  
    23    10    14 ar  
    24    10    22 1   
    25    11    12 ar  
    26    11    36 1   
    27    12    13 ar  
    28    12    25 1   
    29    13    26 ar  
    30    13    37 1   
    31    14    26 ar  
    32    14    28 1   
    33    15    16 ar  
    34    18    19 1   
    35    20    40 1   
    36    21    22 1   
    37    21    41 1   
    38    22    23 2   
    39    22    24 2   
    40    26    43 1   
    41    27    42 1   
    42    27    43 1   
    43    29    30 1   
    44    38    43 1   
    45    39    43 1   
@<TRIPOS>SUBSTRUCTURE
     1 KA4         1 TEMP              0 ****  ****    0 ROOT
