@<TRIPOS>MOLECULE
KA5
   43    45     1     0     0
SMALL
bcc


@<TRIPOS>ATOM
      1 N1          -4.8290     1.3430     0.5980 nb         1 KA5      -0.814000
      2 C2          -5.7050     0.3900     0.3960 ca         1 KA5       0.938900
      3 N3          -5.4270    -0.8710     0.0290 nb         1 KA5      -0.880000
      4 C4          -4.1720    -1.2330    -0.1450 ca         1 KA5       0.774200
      5 C5          -3.0870    -0.2880     0.0630 ca         1 KA5      -0.292600
      6 C6          -3.5280     1.0060     0.4360 ca         1 KA5       0.459600
      7 C7          -2.5660     2.0100     0.6590 ca         1 KA5      -0.162300
      8 C8          -1.2300     1.7600     0.5410 ca         1 KA5      -0.145000
      9 C9          -0.7460     0.4850     0.1730 ca         1 KA5       0.154600
     10 C10         -1.6940    -0.5050    -0.0670 ca         1 KA5      -0.005600
     11 N11         -7.0180     0.6640     0.6050 nv         1 KA5      -0.942500
     12 N12         -3.9990    -2.5060    -0.5140 nv         1 KA5      -0.970500
     13 CL13        -1.0360    -2.0470    -0.5510 cl         1 KA5      -0.137400
     14 N14          0.6010     0.2510     0.0230 nu         1 KA5      -0.737600
     15 C15          1.5820     1.2310     0.4430 c3         1 KA5       0.266100
     16 C16          2.9660     0.7110     0.1760 ca         1 KA5      -0.108300
     17 C17          3.7400     0.2530     1.2260 ca         1 KA5      -0.118000
     18 C18          5.0240    -0.2600     1.0220 ca         1 KA5       0.100100
     19 C19          5.5230    -0.3100    -0.2700 ca         1 KA5      -0.166000
     20 C20          4.7520     0.1500    -1.3370 ca         1 KA5      -0.186000
     21 C21          3.4790     0.6580    -1.1300 ca         1 KA5       0.131100
     22 O22          2.6760     1.1250    -2.1090 os         1 KA5      -0.303900
     23 C23          3.1710     1.1460    -3.4310 c3         1 KA5       0.123700
     24 O24          5.6860    -0.6760     2.1250 os         1 KA5      -0.317900
     25 C25          6.9830    -1.2080     1.9600 c3         1 KA5       0.125700
     26 H7          -2.9120     2.9940     0.9450 ha         1 KA5       0.151000
     27 H8          -0.5320     2.5620     0.7380 ha         1 KA5       0.137000
     28 HN11        -7.2890     1.6330     0.6370 hn         1 KA5       0.427300
     29 HN1A        -7.6940     0.0340     0.2080 hn         1 KA5       0.427300
     30 HN12        -4.8230    -3.0650    -0.6560 hn         1 KA5       0.448800
     31 HN1B        -3.1100    -2.9200    -0.7160 hn         1 KA5       0.448800
     32 HN14         0.8920    -0.7000     0.1910 hn         1 KA5       0.421800
     33 H15          1.4230     2.1610    -0.1080 h1         1 KA5       0.046700
     34 H15A         1.4920     1.4740     1.5090 h1         1 KA5       0.046700
     35 H17          3.3440     0.2960     2.2340 ha         1 KA5       0.147000
     36 H19          6.5090    -0.6990    -0.4850 ha         1 KA5       0.135000
     37 H20          5.1790     0.0950    -2.3290 ha         1 KA5       0.136000
     38 H23          2.3870     1.5770    -4.0490 h1         1 KA5       0.040033
     39 H23A         4.0700     1.7610    -3.5230 h1         1 KA5       0.040033
     40 H23B         3.3950     0.1420    -3.8020 h1         1 KA5       0.040033
     41 H25          6.9820    -2.1030     1.3310 h1         1 KA5       0.039367
     42 H25A         7.6740    -0.4780     1.5290 h1         1 KA5       0.039367
     43 H25B         7.3380    -1.4790     2.9510 h1         1 KA5       0.039367
@<TRIPOS>BOND
     1     1     2 ar  
     2     1     6 ar  
     3     2     3 ar  
     4     2    11 1   
     5     3     4 ar  
     6     4     5 ar  
     7     4    12 1   
     8     5     6 ar  
     9     5    10 ar  
    10     6     7 ar  
    11     7     8 ar  
    12     7    26 1   
    13     8     9 ar  
    14     8    27 1   
    15     9    10 ar  
    16     9    14 1   
    17    10    13 1   
    18    11    28 1   
    19    11    29 1   
    20    12    30 1   
    21    12    31 1   
    22    14    15 1   
    23    14    32 1   
    24    15    16 1   
    25    15    33 1   
    26    15    34 1   
    27    16    17 ar  
    28    16    21 ar  
    29    17    18 ar  
    30    17    35 1   
    31    18    19 ar  
    32    18    24 1   
    33    19    20 ar  
    34    19    36 1   
    35    20    21 ar  
    36    20    37 1   
    37    21    22 1   
    38    22    23 1   
    39    23    38 1   
    40    23    39 1   
    41    23    40 1   
    42    24    25 1   
    43    25    41 1   
    44    25    42 1   
    45    25    43 1   
@<TRIPOS>SUBSTRUCTURE
     1 KA5         1 TEMP              0 ****  ****    0 ROOT
