@<TRIPOS>MOLECULE
KA5
   43    45     1     0     0
SMALL
No Charge or Current Charge


@<TRIPOS>ATOM
      1 N1          -4.9300     1.2290     0.7820 nb         1 KA5      -0.288000
      2 C2          -5.7490     0.2270     0.4590 ca         1 KA5       0.412900
      3 N3          -5.4190    -0.9890     0.0340 nb         1 KA5      -0.354000
      4 C4          -4.1100    -1.2320    -0.0780 ca         1 KA5       0.445900
      5 C5          -3.1140    -0.2590     0.2260 ca         1 KA5      -0.162000
      6 C6          -3.6050     1.0010     0.6700 ca         1 KA5       0.066000
      7 C7          -2.7060     2.0270     1.0010 ca         1 KA5      -0.079000
      8 C8          -1.3230     1.8330     0.8970 ca         1 KA5      -0.127000
      9 C9          -0.8100     0.6040     0.4540 ca         1 KA5       0.293000
     10 C10         -1.7000    -0.4510     0.1170 ca         1 KA5       0.086000
     11 N11         -7.0720     0.4730     0.5710 nv         1 KA5      -1.052900
     12 N12         -3.8800    -2.4980    -0.5070 nv         1 KA5      -1.080900
     13 Cl13        -0.9640    -1.9740    -0.4440 cl         1 KA5      -0.229000
     14 N14          0.5790     0.4200     0.3500 nu         1 KA5      -0.931200
     15 C15          1.6020     1.4620     0.1880 c3         1 KA5       0.266100
     16 C16          2.9720     0.8200    -0.0030 ca         1 KA5      -0.108300
     17 C17          3.6540     0.3180     1.1250 ca         1 KA5      -0.100000
     18 C18          4.9180    -0.2800     0.9980 ca         1 KA5       0.100100
     19 C19          5.5130    -0.3800    -0.2770 ca         1 KA5      -0.148000
     20 C20          4.8410     0.1160    -1.4090 ca         1 KA5      -0.168000
     21 C21          3.5680     0.7180    -1.2800 ca         1 KA5       0.131100
     22 O22          2.8830     1.2130    -2.3760 os         1 KA5      -0.327100
     23 C23          3.4080     1.1420    -3.7130 c3         1 KA5       0.146900
     24 O24          5.5290    -0.7490     2.1430 os         1 KA5      -0.341100
     25 C25          6.8230    -1.3790     2.1210 c3         1 KA5       0.148900
     26 H7          -3.0860     2.9870     1.3440 ha         1 KA5       0.133000
     27 H8          -0.6550     2.6460     1.1650 ha         1 KA5       0.119000
     28 HN11        -7.3730     1.4390     0.6660 hn         1 KA5       0.482500
     29 HN1A        -7.7220    -0.1710     0.1270 hn         1 KA5       0.482500
     30 HN12        -4.6550    -3.0130    -0.9160 hn         1 KA5       0.504000
     31 HN1B        -2.9430    -2.7400    -0.8200 hn         1 KA5       0.504000
     32 HN14         0.8550    -0.5150     0.0450 hn         1 KA5       0.477000
     33 H15          1.3550     2.1050    -0.6670 h1         1 KA5       0.046700
     34 H15A         1.6310     2.1040     1.0800 h1         1 KA5       0.046700
     35 H17          3.1980     0.3910     2.1090 ha         1 KA5       0.129000
     36 H19          6.4890    -0.8370    -0.4100 ha         1 KA5       0.117000
     37 H20          5.3250     0.0230    -2.3770 ha         1 KA5       0.118000
     38 H23          2.7010     1.5900    -4.4230 h1         1 KA5       0.040033
     39 H23A         4.3570     1.6880    -3.7890 h1         1 KA5       0.040033
     40 H23B         3.5750     0.0990    -4.0120 h1         1 KA5       0.040033
     41 H25          6.8080    -2.2800     1.4940 h1         1 KA5       0.039367
     42 H25A         7.5840    -0.6910     1.7310 h1         1 KA5       0.039367
     43 H25B         7.1190    -1.6750     3.1350 h1         1 KA5       0.039367
@<TRIPOS>BOND
     1     1     2 ar  
     2     1     6 ar  
     3     2     3 ar  
     4     2    11 1   
     5     3     4 ar  
     6     4     5 ar  
     7     4    12 1   
     8     5     6 ar  
     9     5    10 ar  
    10     6     7 ar  
    11     7     8 ar  
    12     7    26 1   
    13     8     9 ar  
    14     8    27 1   
    15     9    10 ar  
    16     9    14 1   
    17    10    13 1   
    18    11    28 1   
    19    11    29 1   
    20    12    30 1   
    21    12    31 1   
    22    14    15 1   
    23    14    32 1   
    24    15    16 1   
    25    15    33 1   
    26    15    34 1   
    27    16    17 ar  
    28    16    21 ar  
    29    17    18 ar  
    30    17    35 1   
    31    18    19 ar  
    32    18    24 1   
    33    19    20 ar  
    34    19    36 1   
    35    20    21 ar  
    36    20    37 1   
    37    21    22 1   
    38    22    23 1   
    39    23    38 1   
    40    23    39 1   
    41    23    40 1   
    42    24    25 1   
    43    25    41 1   
    44    25    42 1   
    45    25    43 1   
@<TRIPOS>SUBSTRUCTURE
     1 KA5         1 TEMP              0 ****  ****    0 ROOT
