@<TRIPOS>MOLECULE
KA6
   55    59     1     0     0
SMALL
No Charge or Current Charge


@<TRIPOS>ATOM
      1 C02         91.7730    -4.3090    15.0100 c6         1 KA6       0.057500
      2 C05         94.0860    -3.4470    13.4770 c6         1 KA6       0.131600
      3 C06         94.2530    -4.3280    14.7390 c6         1 KA6       0.057500
      4 C07         92.7240   -14.6760     6.3070 c5         1 KA6      -0.096900
      5 C11         92.5920   -14.5160     7.8470 c5         1 KA6       0.241800
      6 C13         93.2230   -10.0200    12.3260 cc         1 KA6       0.110600
      7 C15         94.9290    -9.9800    10.4800 cd         1 KA6      -0.042000
      8 C16         92.7000   -11.2210    11.8710 cd         1 KA6      -0.160000
      9 C17         93.3210   -11.7780    10.7170 cd         1 KA6      -0.008000
     10 C20         93.9470   -12.8880     9.0690 cc         1 KA6       0.786200
     11 C23         91.4630    -8.6060    15.4060 cc         1 KA6      -0.163600
     12 C24         91.9230    -7.2930    15.5910 cd         1 KA6      -0.253600
     13 C25         91.1880    -6.7770    16.6820 cd         1 KA6       0.259900
     14 C28         91.8130    -9.6630    14.3930 c          1 KA6       0.635700
     15 N01         93.0260    -5.1330    15.0270 n          1 KA6      -0.389800
     16 C03         91.6940    -3.3990    13.7540 c6         1 KA6       0.131600
     17 O04         92.9060    -2.6260    13.6110 os         1 KA6      -0.440000
     18 C08         94.2370   -14.9780     6.1380 c5         1 KA6      -0.096900
     19 C09         94.8560   -13.8940     7.0520 c5         1 KA6       0.241800
     20 N10         93.9290   -13.9660     8.2080 nh         1 KA6      -0.753600
     21 N12         92.7400    -9.3250    13.4320 ns         1 KA6      -0.396100
     22 C14         94.3290    -9.4230    11.6080 cc         1 KA6      -0.218000
     23 N18         94.3740   -11.1890    10.0700 na         1 KA6       0.286400
     24 N19         94.8110   -11.8880     8.9930 nd         1 KA6      -0.685100
     25 N21         93.0260   -12.8910    10.0890 nc         1 KA6      -0.461300
     26 N22         90.4840    -8.7330    16.4030 na         1 KA6       0.180800
     27 N26         90.3140    -7.6150    17.1810 nc         1 KA6      -0.507800
     28 C29         93.0310    -6.5450    14.9150 c          1 KA6       0.662700
     29 O30         93.9380    -7.1030    14.3180 o          1 KA6      -0.641100
     30 O31         91.2840   -10.7640    14.4150 o          1 KA6      -0.578100
     31 H33         90.8780    -4.9440    15.0010 h1         1 KA6       0.069950
     32 H32         91.7350    -3.6870    15.9150 h1         1 KA6       0.069950
     33 H37         93.9930    -4.0800    12.5820 h1         1 KA6       0.057950
     34 H36         94.9650    -2.7990    13.3510 h1         1 KA6       0.057950
     35 H39         94.4590    -3.6790    15.6010 h1         1 KA6       0.069950
     36 H38         95.1300    -4.9780    14.6140 h1         1 KA6       0.069950
     37 H40         92.0830   -15.4730     5.9150 hc         1 KA6       0.052450
     38 H47         91.7490   -13.8570     8.1000 h1         1 KA6       0.052200
     39 H46         92.4290   -15.4870     8.3360 h1         1 KA6       0.052200
     40 H50         95.7570    -9.5700     9.9160 h4         1 KA6       0.159000
     41 H51         91.8630   -11.7280    12.3320 ha         1 KA6       0.173000
     42 H52         91.2910    -5.8090    17.1570 h4         1 KA6       0.047100
     43 H34         91.5500    -4.0140    12.8540 h1         1 KA6       0.057950
     44 H35         90.8380    -2.7150    13.8400 h1         1 KA6       0.057950
     45 H43         94.4880   -15.9870     6.4860 hc         1 KA6       0.052450
     46 H42         94.5760   -14.8910     5.0990 hc         1 KA6       0.052450
     47 H44         95.8940   -14.1280     7.3280 h1         1 KA6       0.052200
     48 H45         94.8340   -12.9090     6.5640 h1         1 KA6       0.052200
     49 H48         93.1640    -8.4230    13.6060 hn         1 KA6       0.373500
     50 H49         94.7160    -8.4800    11.9800 ha         1 KA6       0.145000
     51 C27         89.6440    -9.9110    16.6820 c3         1 KA6       0.067900
     52 H41         92.4460   -13.7490     5.7910 hc         1 KA6       0.052450
     53 H54         88.9780    -9.7090    17.5290 h1         1 KA6       0.072033
     54 H53         89.0390   -10.1470    15.7990 h1         1 KA6       0.072033
     55 H55         90.2830   -10.7670    16.9270 h1         1 KA6       0.072033
@<TRIPOS>BOND
     1     1    15 1   
     2     1    16 1   
     3     1    31 1   
     4     1    32 1   
     5     2     3 1   
     6     2    17 1   
     7     2    33 1   
     8     2    34 1   
     9     3    15 1   
    10     3    35 1   
    11     3    36 1   
    12     4     5 1   
    13     4    18 1   
    14     4    37 1   
    15     4    52 1   
    16     5    20 1   
    17     5    38 1   
    18     5    39 1   
    19     6     8 2   
    20     6    21 1   
    21     6    22 1   
    22     7    22 2   
    23     7    23 1   
    24     7    40 1   
    25     8     9 1   
    26     8    41 1   
    27     9    23 1   
    28     9    25 2   
    29    10    20 1   
    30    10    24 2   
    31    10    25 1   
    32    11    12 2   
    33    11    14 1   
    34    11    26 1   
    35    12    13 1   
    36    12    28 1   
    37    13    27 2   
    38    13    42 1   
    39    14    21 1   
    40    14    30 2   
    41    15    28 1   
    42    16    17 1   
    43    16    43 1   
    44    16    44 1   
    45    18    19 1   
    46    18    45 1   
    47    18    46 1   
    48    19    20 1   
    49    19    47 1   
    50    19    48 1   
    51    21    49 1   
    52    22    50 1   
    53    23    24 1   
    54    26    27 1   
    55    26    51 1   
    56    28    29 2   
    57    51    53 1   
    58    51    54 1   
    59    51    55 1   
@<TRIPOS>SUBSTRUCTURE
     1 KA6         1 TEMP              0 ****  ****    0 ROOT
