@<TRIPOS>MOLECULE
KA6
   55    59     1     0     0
SMALL
bcc


@<TRIPOS>ATOM
      1 C02         91.7600    -4.4730    14.8260 c6         1 KA6       0.057500
      2 C05         93.7400    -3.8750    12.9000 c6         1 KA6       0.108400
      3 C06         94.1170    -4.4380    14.2600 c6         1 KA6       0.057500
      4 C07         92.7490   -14.4860     6.1580 c5         1 KA6      -0.096900
      5 C11         92.4370   -14.0430     7.5840 c5         1 KA6       0.241800
      6 C13         93.3730   -10.0730    12.6780 cc         1 KA6       0.110600
      7 C15         95.2450   -10.3850    11.1840 cd         1 KA6      -0.009300
      8 C16         92.6130   -10.9490    11.9310 cd         1 KA6      -0.178000
      9 C17         93.1930   -11.5330    10.7960 cd         1 KA6       0.042700
     10 C20         93.7410   -12.5690     9.0570 cc         1 KA6       0.786200
     11 C23         91.5210    -8.4860    15.5020 cc         1 KA6      -0.112900
     12 C24         92.0470    -7.2220    15.7500 cd         1 KA6      -0.318900
     13 C25         91.3950    -6.8030    16.9180 cd         1 KA6       0.325200
     14 C28         91.7080    -9.4460    14.3820 c          1 KA6       0.702700
     15 N01         93.0110    -5.2170    14.7990 n          1 KA6      -0.456800
     16 C03         91.4810    -3.8990    13.4450 c6         1 KA6       0.108400
     17 O04         92.5520    -3.1190    12.9700 os         1 KA6      -0.393600
     18 C08         94.2590   -14.7160     6.1810 c5         1 KA6      -0.096900
     19 C09         94.7720   -13.5960     7.0810 c5         1 KA6       0.241800
     20 N10         93.6620   -13.3770     7.9900 nh         1 KA6      -0.753600
     21 N12         92.9350    -9.4040    13.8130 ns         1 KA6      -0.463100
     22 C14         94.7100    -9.7950    12.2860 cc         1 KA6      -0.236000
     23 N18         94.4860   -11.2330    10.4650 na         1 KA6       0.185000
     24 N19         94.8520   -11.8920     9.3480 nd         1 KA6      -0.685100
     25 N21         92.7050   -12.3860     9.9050 nc         1 KA6      -0.461300
     26 N22         90.6240    -8.7200    16.4840 na         1 KA6       0.159400
     27 N26         90.5540    -7.7200    17.3480 nc         1 KA6      -0.507800
     28 C29         93.1540    -6.5250    15.0560 c          1 KA6       0.729700
     29 O30         94.1870    -7.1440    14.7850 o          1 KA6      -0.641100
     30 O31         90.8080   -10.1890    14.0370 o          1 KA6      -0.578100
     31 H33         90.9320    -5.1160    15.1100 h1         1 KA6       0.069950
     32 H32         91.8360    -3.6700    15.5650 h1         1 KA6       0.069950
     33 H37         93.6350    -4.6980    12.1810 h1         1 KA6       0.057950
     34 H36         94.5310    -3.2130    12.5440 h1         1 KA6       0.057950
     35 H39         94.3340    -3.6230    14.9570 h1         1 KA6       0.069950
     36 H38         95.0050    -5.0570    14.1780 h1         1 KA6       0.069950
     37 H40         92.1860   -15.3720     5.8690 hc         1 KA6       0.052450
     38 H47         91.5810   -13.3690     7.6340 h1         1 KA6       0.052200
     39 H46         92.2180   -14.9010     8.2290 h1         1 KA6       0.052200
     40 H50         96.2540   -10.2130    10.8390 h4         1 KA6       0.177000
     41 H51         91.5960   -11.2030    12.1760 ha         1 KA6       0.191000
     42 H52         91.5280    -5.8810    17.4630 h4         1 KA6       0.047100
     43 H34         91.2640    -4.7240    12.7520 h1         1 KA6       0.057950
     44 H35         90.6000    -3.2570    13.4910 h1         1 KA6       0.057950
     45 H43         94.4850   -15.6880     6.6240 hc         1 KA6       0.052450
     46 H42         94.7120   -14.6880     5.1910 hc         1 KA6       0.052450
     47 H44         95.6800   -13.8760     7.6210 h1         1 KA6       0.052200
     48 H45         94.9980   -12.6910     6.5060 h1         1 KA6       0.052200
     49 H48         93.6000    -8.7450    14.2260 hn         1 KA6       0.373500
     50 H49         95.3210    -9.1100    12.8550 ha         1 KA6       0.163000
     51 C27         89.7860    -9.8830    16.7070 c3         1 KA6       0.038600
     52 H41         92.5000   -13.6880     5.4550 hc         1 KA6       0.052450
     53 H54         89.3970    -9.8050    17.7170 h1         1 KA6       0.072033
     54 H53         88.9590    -9.9110    16.0030 h1         1 KA6       0.072033
     55 H55         90.3650   -10.7980    16.6190 h1         1 KA6       0.072033
@<TRIPOS>BOND
     1     1    15 1   
     2     1    16 1   
     3     1    31 1   
     4     1    32 1   
     5     2     3 1   
     6     2    17 1   
     7     2    33 1   
     8     2    34 1   
     9     3    15 1   
    10     3    35 1   
    11     3    36 1   
    12     4     5 1   
    13     4    18 1   
    14     4    37 1   
    15     4    52 1   
    16     5    20 1   
    17     5    38 1   
    18     5    39 1   
    19     6     8 2   
    20     6    21 1   
    21     6    22 1   
    22     7    22 2   
    23     7    23 1   
    24     7    40 1   
    25     8     9 1   
    26     8    41 1   
    27     9    23 1   
    28     9    25 2   
    29    10    20 1   
    30    10    24 2   
    31    10    25 1   
    32    11    12 2   
    33    11    14 1   
    34    11    26 1   
    35    12    13 1   
    36    12    28 1   
    37    13    27 2   
    38    13    42 1   
    39    14    21 1   
    40    14    30 2   
    41    15    28 1   
    42    16    17 1   
    43    16    43 1   
    44    16    44 1   
    45    18    19 1   
    46    18    45 1   
    47    18    46 1   
    48    19    20 1   
    49    19    47 1   
    50    19    48 1   
    51    21    49 1   
    52    22    50 1   
    53    23    24 1   
    54    26    27 1   
    55    26    51 1   
    56    28    29 2   
    57    51    53 1   
    58    51    54 1   
    59    51    55 1   
@<TRIPOS>SUBSTRUCTURE
     1 KA6         1 TEMP              0 ****  ****    0 ROOT
