@<TRIPOS>MOLECULE
KA7
   42    44     1     0     0
SMALL
No Charge or Current Charge


@<TRIPOS>ATOM
      1 C4           0.4650     2.0160     2.0480 ca         1 KA7      -0.167000
      2 C5           4.5590     0.6160     0.0370 ca         1 KA7       0.067000
      3 C6          -5.8950     1.1810    -0.6280 ca         1 KA7       0.185400
      4 C7          -5.4040    -1.1370    -1.0360 ca         1 KA7       0.185400
      5 C8           4.1000     0.9010    -2.3090 ca         1 KA7       0.449900
      6 C10         -1.2470     0.6040     1.0300 ca         1 KA7      -0.031000
      7 C13         -0.3590    -0.4930     1.1030 ca         1 KA7       0.215000
      8 C15          4.7390     1.3490    -1.1410 ca         1 KA7      -0.014000
      9 C17         -7.4250    -0.2240    -1.5740 ca         1 KA7       0.395900
     10 C1          -3.6690     0.2960    -0.0020 cg         1 KA7      -0.032000
     11 C2          -2.5570     0.4440     0.4770 ch         1 KA7      -0.128000
     12 C3           1.3430     0.9200     2.1160 ca         1 KA7      -0.044000
     13 C9          -4.9800     0.1150    -0.5510 ca         1 KA7      -0.170000
     14 C11          0.9450    -0.3470     1.6410 ca         1 KA7       0.191000
     15 C12         -0.8200     1.8590     1.5080 ca         1 KA7       0.222000
     16 C14          3.7480    -0.5330    -0.0140 ca         1 KA7      -0.361500
     17 C16          3.1420    -0.9090    -1.2140 ca         1 KA7       0.681300
     18 C18          1.6210    -2.3960    -2.4450 c3         1 KA7       0.163900
     19 N19          3.3140    -0.2010    -2.3510 nb         1 KA7      -0.772000
     20 N20         -7.1300     1.0120    -1.1440 nb         1 KA7      -0.251500
     21 N21         -6.6380    -1.3100    -1.5530 nb         1 KA7      -0.251500
     22 N23          1.8170    -1.4510     1.6900 nu         1 KA7      -0.916100
     23 O26          2.3200    -2.0110    -1.2450 os         1 KA7      -0.445300
     24 F27         -1.6420     2.9340     1.4550 f          1 KA7      -0.157000
     25 F28         -0.7510    -1.7080     0.6390 f          1 KA7      -0.153000
     26 S29          3.4740    -1.4930     1.4400 sy         1 KA7       1.190600
     27 Cl           5.7430     2.7980    -1.1500 cl         1 KA7      -0.169000
     28 H1           0.7790     2.9890     2.4160 ha         1 KA7       0.144000
     29 H2           5.0420     0.9400     0.9590 ha         1 KA7       0.165000
     30 H3          -5.6420     2.1800    -0.2740 h4         1 KA7       0.031100
     31 H4          -4.7540    -2.0110    -1.0110 h4         1 KA7       0.031100
     32 H5           4.2170     1.4460    -3.2450 h4         1 KA7       0.037100
     33 H6           2.3290     1.0660     2.5480 ha         1 KA7       0.133000
     34 H7           0.9470    -1.5970    -2.7800 h1         1 KA7       0.055700
     35 H8           2.3260    -2.6200    -3.2560 h1         1 KA7       0.055700
     36 H9           1.0170    -3.2940    -2.2630 h1         1 KA7       0.055700
     37 H10         -9.2040     0.4330    -2.3390 hn         1 KA7       0.508000
     38 H11         -8.8550    -1.2370    -2.6340 hn         1 KA7       0.508000
     39 H12          1.4930    -2.2950     1.2300 hn         1 KA7       0.516000
     40 N22         -8.6650    -0.3950    -2.0940 nv         1 KA7      -1.063900
     41 O24          3.7130    -2.9080     1.1600 o          1 KA7      -0.531000
     42 O25          4.0480    -0.8250     2.6090 o          1 KA7      -0.531000
@<TRIPOS>BOND
     1     1    12 ar  
     2     1    15 ar  
     3     1    28 1   
     4     2     8 ar  
     5     2    16 ar  
     6     2    29 1   
     7     3    13 ar  
     8     3    20 ar  
     9     3    30 1   
    10     4    13 ar  
    11     4    21 ar  
    12     4    31 1   
    13     5     8 ar  
    14     5    19 ar  
    15     5    32 1   
    16     6     7 ar  
    17     6    11 1   
    18     6    15 ar  
    19     7    14 ar  
    20     7    25 1   
    21     8    27 1   
    22     9    20 ar  
    23     9    21 ar  
    24     9    40 1   
    25    10    11 3   
    26    10    13 1   
    27    12    14 ar  
    28    12    33 1   
    29    14    22 1   
    30    15    24 1   
    31    16    17 ar  
    32    16    26 1   
    33    17    19 ar  
    34    17    23 1   
    35    18    23 1   
    36    18    34 1   
    37    18    35 1   
    38    18    36 1   
    39    22    26 1   
    40    22    39 1   
    41    26    41 2   
    42    26    42 2   
    43    37    40 1   
    44    38    40 1   
@<TRIPOS>SUBSTRUCTURE
     1 KA7         1 TEMP              0 ****  ****    0 ROOT
