@<TRIPOS>MOLECULE
KA7
   42    44     1     0     0
SMALL
bcc


@<TRIPOS>ATOM
      1 C4           0.1180     2.0190    -1.3800 ca         1 KA7      -0.185000
      2 C5           3.6560     0.1830     1.2470 ca         1 KA7       0.049000
      3 C6          -6.6120     1.2680    -0.0540 ca         1 KA7       0.513700
      4 C7          -6.2070    -0.8970     0.7920 ca         1 KA7       0.513700
      5 C8           5.6880     0.7590     0.1390 ca         1 KA7       0.515200
      6 C10         -1.7690     0.6380    -0.7040 ca         1 KA7      -0.031000
      7 C13         -0.9070    -0.4540    -0.6890 ca         1 KA7       0.179900
      8 C15          4.7850     0.9840     1.1610 ca         1 KA7      -0.170900
      9 C17         -8.2860    -0.0020     0.7850 ca         1 KA7       0.921900
     10 C1          -4.3090     0.3920    -0.1070 cg         1 KA7      -0.032000
     11 C2          -3.1390     0.5050    -0.3780 ch         1 KA7      -0.128000
     12 C3           0.9340     0.8980    -1.3760 ca         1 KA7      -0.062000
     13 C9          -5.6800     0.2580     0.2060 ca         1 KA7      -0.300600
     14 C11          0.4330    -0.3510    -1.0310 ca         1 KA7       0.052600
     15 C12         -1.2110     1.8690    -1.0510 ca         1 KA7       0.186900
     16 C14          3.4880    -0.8100     0.3050 ca         1 KA7      -0.426800
     17 C16          4.4610    -0.9730    -0.6990 ca         1 KA7       0.746600
     18 C18          5.2300    -2.0670    -2.6430 c3         1 KA7       0.140700
     19 N19          5.5210    -0.1970    -0.7650 nb         1 KA7      -0.772000
     20 N20         -7.8900     1.1520     0.2250 nb         1 KA7      -0.777500
     21 N21         -7.4810    -1.0360     1.0800 nb         1 KA7      -0.777500
     22 N23          1.2750    -1.4830    -1.0210 nu         1 KA7      -0.722500
     23 O26          4.2760    -1.9240    -1.5920 os         1 KA7      -0.422100
     24 F27         -2.0180     2.9270    -1.0640 f          1 KA7      -0.121900
     25 F28         -1.4020    -1.6390    -0.3520 f          1 KA7      -0.117900
     26 S29          2.0680    -1.8600     0.3830 sy         1 KA7       1.332200
     27 CL           5.0580     2.2460     2.3020 cl         1 KA7      -0.077400
     28 H1           0.5090     2.9910    -1.6470 ha         1 KA7       0.162000
     29 H2           2.9260     0.3360     2.0300 ha         1 KA7       0.183000
     30 H3          -6.2910     2.2000    -0.5070 h4         1 KA7       0.031100
     31 H4          -5.5570    -1.7330     1.0300 h4         1 KA7       0.031100
     32 H5           6.5770     1.3710     0.0450 h4         1 KA7       0.037100
     33 H6           1.9760     0.9900    -1.6520 ha         1 KA7       0.151000
     34 H7           5.2720    -1.1720    -3.2630 h1         1 KA7       0.055700
     35 H8           6.2240    -2.2800    -2.2530 h1         1 KA7       0.055700
     36 H9           4.8830    -2.9070    -3.2370 h1         1 KA7       0.055700
     37 H10        -10.2350     0.5870     0.8180 hn         1 KA7       0.452800
     38 H11         -9.9370    -0.9960     1.4440 hn         1 KA7       0.452800
     39 H12          0.9980    -2.2960    -1.5610 hn         1 KA7       0.460800
     40 N22         -9.5810    -0.1290     1.0800 nv         1 KA7      -0.953500
     41 O24          2.4670    -3.2480     0.2770 o          1 KA7      -0.601800
     42 O25          1.2920    -1.4150     1.5280 o          1 KA7      -0.601800
@<TRIPOS>BOND
     1     1    12 ar  
     2     1    15 ar  
     3     1    28 1   
     4     2     8 ar  
     5     2    16 ar  
     6     2    29 1   
     7     3    13 ar  
     8     3    20 ar  
     9     3    30 1   
    10     4    13 ar  
    11     4    21 ar  
    12     4    31 1   
    13     5     8 ar  
    14     5    19 ar  
    15     5    32 1   
    16     6     7 ar  
    17     6    11 1   
    18     6    15 ar  
    19     7    14 ar  
    20     7    25 1   
    21     8    27 1   
    22     9    20 ar  
    23     9    21 ar  
    24     9    40 1   
    25    10    11 3   
    26    10    13 1   
    27    12    14 ar  
    28    12    33 1   
    29    14    22 1   
    30    15    24 1   
    31    16    17 ar  
    32    16    26 1   
    33    17    19 ar  
    34    17    23 1   
    35    18    23 1   
    36    18    34 1   
    37    18    35 1   
    38    18    36 1   
    39    22    26 1   
    40    22    39 1   
    41    26    41 2   
    42    26    42 2   
    43    37    40 1   
    44    38    40 1   
@<TRIPOS>SUBSTRUCTURE
     1 KA7         1 TEMP              0 ****  ****    0 ROOT
