@<TRIPOS>MOLECULE
KAA
   58    60     1     0     0
SMALL
abcg2


@<TRIPOS>ATOM
      1 NZ          -1.0480     5.6280     7.7060 n8         1 KAA      -0.992200
      2 CE          -0.6680     5.4110     6.3200 c3         1 KAA       0.151800
      3 CD          -1.2790     6.4600     5.4070 c3         1 KAA      -0.078400
      4 CG          -0.8720     6.2790     3.9510 c3         1 KAA      -0.076400
      5 CB          -1.5120     7.3250     3.0470 c3         1 KAA      -0.073400
      6 CA          -1.1090     7.2240     1.5820 c3         1 KAA       0.102500
      7 N           -1.7340     8.2840     0.8140 n8         1 KAA      -0.998200
      8 C           -1.4930     5.8530     1.0290 c          1 KAA       0.582100
      9 O           -2.5870     5.3650     1.1640 o          1 KAA      -0.532100
     10 N8          -0.4710     5.2320     0.3280 ns         1 KAA      -0.624300
     11 S1          -0.5740     3.8190    -0.5500 s6         1 KAA       1.432500
     12 O1S          0.4910     3.8600    -1.5130 o          1 KAA      -0.528500
     13 O2S         -1.9390     3.5950    -0.9370 o          1 KAA      -0.528500
     14 O5          -0.1130     2.7100     0.4880 os         1 KAA      -0.567700
     15 C5          -0.9020     2.4280     1.6570 c3         1 KAA       0.179600
     16 C4          -0.3050     1.1770     2.2700 c5         1 KAA       0.121300
     17 O4           1.0830     1.3500     2.5300 os         1 KAA      -0.416000
     18 C3          -0.9290     0.8200     3.6240 c5         1 KAA       0.146300
     19 O3          -0.7230    -0.5250     3.9450 oh         1 KAA      -0.677000
     20 C2          -0.0820     1.6710     4.5670 c5         1 KAA       0.154300
     21 O2          -0.0790     1.1960     5.8700 oh         1 KAA      -0.694000
     22 C1           1.2980     1.6400     3.8720 c5         1 KAA       0.270300
     23 N9           1.9720     2.9280     3.9860 na         1 KAA      -0.305300
     24 C8           2.4250     3.7700     3.0070 cc         1 KAA       0.419700
     25 N7           3.0080     4.8350     3.4790 nd         1 KAA      -0.562100
     26 C7           2.9440     4.6880     4.8390 ca         1 KAA      -0.097600
     27 C9           2.3020     3.5080     5.1710 ca         1 KAA       0.113500
     28 N3           2.0440     3.0560     6.4000 nb         1 KAA      -0.268000
     29 C10          2.5010     3.8790     7.3310 ca         1 KAA       0.194900
     30 N1           3.1410     5.0300     7.1610 nb         1 KAA      -0.299000
     31 C6           3.3810     5.4780     5.9210 ca         1 KAA       0.458900
     32 N6           4.0180     6.6350     5.7610 nv         1 KAA      -1.054900
     33 HNZ1        -0.5930     4.9400     8.2920 hn         1 KAA       0.393500
     34 HNZ2        -2.0410     5.4530     7.8100 hn         1 KAA       0.393500
     35 HE1         -0.9360     4.4110     5.9450 h1         1 KAA       0.023700
     36 HE2          0.4200     5.4810     6.2490 h1         1 KAA       0.023700
     37 HD1         -0.9780     7.4530     5.7550 hc         1 KAA       0.050700
     38 HD2         -2.3710     6.4210     5.4840 hc         1 KAA       0.050700
     39 HG1          0.2190     6.3300     3.8610 hc         1 KAA       0.036200
     40 HG2         -1.1610     5.2720     3.6290 hc         1 KAA       0.036200
     41 HB1         -2.6010     7.2630     3.1260 hc         1 KAA       0.064200
     42 HB2         -1.2300     8.3240     3.3890 hc         1 KAA       0.064200
     43 HA          -0.0250     7.3560     1.5090 h1         1 KAA       0.073700
     44 HN1         -2.7420     8.1810     0.8270 hn         1 KAA       0.414500
     45 HN2         -1.4470     8.2520    -0.1560 hn         1 KAA       0.414500
     46 HN8          0.4220     5.7060     0.2510 hn         1 KAA       0.348500
     47 H5'1        -0.8560     3.2810     2.3400 h1         1 KAA       0.063200
     48 H5'2        -1.9450     2.2480     1.3890 h1         1 KAA       0.063200
     49 H4          -0.4110     0.3560     1.5560 h1         1 KAA       0.099700
     50 H3          -1.9890     1.0980     3.6700 h1         1 KAA       0.063700
     51 HO3         -1.3060    -1.0640     3.4000 ho         1 KAA       0.508000
     52 H2          -0.4610     2.7030     4.5180 h1         1 KAA       0.040700
     53 HO2          0.5720     1.7320     6.3620 ho         1 KAA       0.551000
     54 H1           1.9480     0.8840     4.3250 h2         1 KAA       0.113700
     55 H8           2.3020     3.5420     1.9600 h5         1 KAA       0.083800
     56 H6           2.3300     3.5810     8.3590 h5         1 KAA       0.049100
     57 HN61         4.1710     7.0220     4.8460 hn         1 KAA       0.510500
     58 HN62         4.2750     7.1880     6.5610 hn         1 KAA       0.510500
@<TRIPOS>BOND
     1     1     2 1   
     2     1    33 1   
     3     1    34 1   
     4     2     3 1   
     5     2    35 1   
     6     2    36 1   
     7     3     4 1   
     8     3    37 1   
     9     3    38 1   
    10     4     5 1   
    11     4    39 1   
    12     4    40 1   
    13     5     6 1   
    14     5    41 1   
    15     5    42 1   
    16     6     7 1   
    17     6     8 1   
    18     6    43 1   
    19     7    44 1   
    20     7    45 1   
    21     8     9 2   
    22     8    10 1   
    23    10    11 1   
    24    10    46 1   
    25    11    12 2   
    26    11    13 2   
    27    11    14 1   
    28    14    15 1   
    29    15    16 1   
    30    15    47 1   
    31    15    48 1   
    32    16    17 1   
    33    16    18 1   
    34    16    49 1   
    35    17    22 1   
    36    18    19 1   
    37    18    20 1   
    38    18    50 1   
    39    19    51 1   
    40    20    21 1   
    41    20    22 1   
    42    20    52 1   
    43    21    53 1   
    44    22    23 1   
    45    22    54 1   
    46    23    24 1   
    47    23    27 1   
    48    24    25 2   
    49    24    55 1   
    50    25    26 1   
    51    26    27 ar  
    52    26    31 ar  
    53    27    28 ar  
    54    28    29 ar  
    55    29    30 ar  
    56    29    56 1   
    57    30    31 ar  
    58    31    32 1   
    59    32    57 1   
    60    32    58 1   
@<TRIPOS>SUBSTRUCTURE
     1 KAA         1 TEMP              0 ****  ****    0 ROOT
