@<TRIPOS>MOLECULE
KAA
   58    60     1     0     0
SMALL
No Charge or Current Charge


@<TRIPOS>ATOM
      1 NZ          -0.2570     6.3800     7.7510 n8         1 KAA      -0.992200
      2 CE          -0.0090     6.1810     6.3120 c3         1 KAA       0.151800
      3 CD          -1.1550     6.7610     5.4580 c3         1 KAA      -0.078400
      4 CG          -0.9400     6.5780     3.9380 c3         1 KAA      -0.076400
      5 CB          -2.0720     7.2090     3.0910 c3         1 KAA      -0.073400
      6 CA          -1.8520     7.1200     1.5570 c3         1 KAA       0.102500
      7 N           -2.9000     7.9390     0.8570 n8         1 KAA      -0.998200
      8 C           -1.7360     5.6320     1.0550 c          1 KAA       0.582100
      9 O           -2.6310     4.8160     1.2200 o          1 KAA      -0.532100
     10 N8          -0.5790     5.3330     0.4030 ns         1 KAA      -0.624300
     11 S1          -0.1760     3.9080    -0.3460 s6         1 KAA       1.432500
     12 O1S          1.1580     4.0680    -0.9290 o          1 KAA      -0.528500
     13 O2S         -1.3050     3.4460    -1.1580 o          1 KAA      -0.528500
     14 O5          -0.0590     2.9620     0.9860 os         1 KAA      -0.567700
     15 C5           0.0370     1.5460     0.7530 c3         1 KAA       0.179600
     16 C4           0.0560     0.7820     2.1100 c5         1 KAA       0.121300
     17 O4           1.1890     1.2070     2.9180 os         1 KAA      -0.416000
     18 C3          -1.2120     0.9850     3.0050 c5         1 KAA       0.146300
     19 O3          -1.4590    -0.1340     3.8680 oh         1 KAA      -0.677000
     20 C2          -0.7990     2.2270     3.8440 c5         1 KAA       0.154300
     21 O2          -1.5870     2.3160     5.0500 oh         1 KAA      -0.694000
     22 C1           0.7130     1.9010     4.0940 c5         1 KAA       0.270300
     23 N9           1.6070     3.0230     4.3760 na         1 KAA      -0.305300
     24 C8           1.7240     4.1840     3.6060 cc         1 KAA       0.419700
     25 N7           2.6050     5.0470     4.1460 nd         1 KAA      -0.562100
     26 C7           3.0350     4.3840     5.3000 ca         1 KAA      -0.097600
     27 C9           2.4350     3.1600     5.4520 ca         1 KAA       0.113500
     28 N3           2.6910     2.3590     6.5050 nb         1 KAA      -0.268000
     29 C10          3.5840     2.8390     7.4040 ca         1 KAA       0.194900
     30 N1           4.2330     4.0280     7.3470 nb         1 KAA      -0.299000
     31 C6           3.9550     4.8000     6.2840 ca         1 KAA       0.458900
     32 N6           4.6020     5.9950     6.2240 nv         1 KAA      -1.054900
     33 HNZ1         0.4980     5.9330     8.2850 hn         1 KAA       0.393500
     34 HNZ2        -1.0940     5.8530     8.0260 hn         1 KAA       0.393500
     35 HE1          0.0940     5.1050     6.1180 h1         1 KAA       0.023700
     36 HE2          0.9360     6.6750     6.0480 h1         1 KAA       0.023700
     37 HD1         -1.2550     7.8320     5.6780 hc         1 KAA       0.050700
     38 HD2         -2.1010     6.2850     5.7460 hc         1 KAA       0.050700
     39 HG1          0.0180     7.0300     3.6540 hc         1 KAA       0.036200
     40 HG2         -0.8720     5.5070     3.7150 hc         1 KAA       0.036200
     41 HB1         -3.0240     6.7290     3.3490 hc         1 KAA       0.064200
     42 HB2         -2.1680     8.2660     3.3710 hc         1 KAA       0.064200
     43 HA          -0.8840     7.5970     1.3480 h1         1 KAA       0.073700
     44 HN1         -3.8080     7.4630     0.9380 hn         1 KAA       0.414500
     45 HN2         -2.7240     7.9340    -0.1560 hn         1 KAA       0.414500
     46 HN8          0.1360     6.0270     0.2780 hn         1 KAA       0.348500
     47 H5'1        -0.8180     1.1820     0.1670 h1         1 KAA       0.063200
     48 H5'2         0.9550     1.3020     0.2010 h1         1 KAA       0.063200
     49 H4           0.1800    -0.2830     1.8730 h1         1 KAA       0.099700
     50 H3          -2.1020     1.1990     2.3960 h1         1 KAA       0.063700
     51 HO3         -1.8090     0.2820     4.6950 ho         1 KAA       0.508000
     52 H2          -0.9140     3.1460     3.2560 h1         1 KAA       0.040700
     53 HO2         -1.3820     3.1800     5.4780 ho         1 KAA       0.551000
     54 H1           0.7890     1.2210     4.9520 h2         1 KAA       0.113700
     55 H8           1.1640     4.3360     2.6920 h5         1 KAA       0.083800
     56 H6           3.8030     2.2050     8.2610 h5         1 KAA       0.049100
     57 HN61         4.2430     6.6700     5.5540 hn         1 KAA       0.510500
     58 HN62         5.0010     6.3700     7.0800 hn         1 KAA       0.510500
@<TRIPOS>BOND
     1     1     2 1   
     2     1    33 1   
     3     1    34 1   
     4     2     3 1   
     5     2    35 1   
     6     2    36 1   
     7     3     4 1   
     8     3    37 1   
     9     3    38 1   
    10     4     5 1   
    11     4    39 1   
    12     4    40 1   
    13     5     6 1   
    14     5    41 1   
    15     5    42 1   
    16     6     7 1   
    17     6     8 1   
    18     6    43 1   
    19     7    44 1   
    20     7    45 1   
    21     8     9 2   
    22     8    10 1   
    23    10    11 1   
    24    10    46 1   
    25    11    12 2   
    26    11    13 2   
    27    11    14 1   
    28    14    15 1   
    29    15    16 1   
    30    15    47 1   
    31    15    48 1   
    32    16    17 1   
    33    16    18 1   
    34    16    49 1   
    35    17    22 1   
    36    18    19 1   
    37    18    20 1   
    38    18    50 1   
    39    19    51 1   
    40    20    21 1   
    41    20    22 1   
    42    20    52 1   
    43    21    53 1   
    44    22    23 1   
    45    22    54 1   
    46    23    24 1   
    47    23    27 1   
    48    24    25 2   
    49    24    55 1   
    50    25    26 1   
    51    26    27 ar  
    52    26    31 ar  
    53    27    28 ar  
    54    28    29 ar  
    55    29    30 ar  
    56    29    56 1   
    57    30    31 ar  
    58    31    32 1   
    59    32    57 1   
    60    32    58 1   
@<TRIPOS>SUBSTRUCTURE
     1 KAA         1 TEMP              0 ****  ****    0 ROOT
