@<TRIPOS>MOLECULE
KAB
  142   145     1     0     0
SMALL
No Charge or Current Charge


@<TRIPOS>ATOM
      1 O5           2.6050   -12.7710    -9.0790 oh         1 KAB      -0.658000
      2 C7           2.2080   -11.4970    -8.5610 c3         1 KAB       0.179300
      3 C6           2.1400   -10.4400    -9.7080 c3         1 KAB      -0.110400
      4 C5           3.4560   -10.2360   -10.5320 c3         1 KAB      -0.043700
      5 C36          3.4980   -11.1700   -11.7720 c3         1 KAB      -0.088100
      6 C4           3.6560    -8.7230   -10.8930 c3         1 KAB      -0.097400
      7 C3           4.8320    -8.3070   -11.8340 c3         1 KAB       0.205300
      8 O3           4.4550    -8.6900   -13.1790 os         1 KAB      -0.531000
      9 C48          5.1920    -8.1240   -14.2360 c3         1 KAB       0.611500
     10 N1           4.2890    -7.9160   -15.3000 n8         1 KAB      -1.073200
     11 O4           6.0730    -9.0620   -14.7450 oh         1 KAB      -0.635000
     12 C2           6.2280    -8.8730   -11.4430 c3         1 KAB      -0.144400
     13 C1           7.1760    -7.7550   -11.0290 c          1 KAB       0.623100
     14 O1           7.3590    -7.4270    -9.8650 o          1 KAB      -0.509000
     15 O2           7.6370    -7.0610   -12.1160 os         1 KAB      -0.433100
     16 C8           0.8820   -11.6750    -7.7440 c3         1 KAB      -0.085700
     17 C37         -0.2950   -12.2270    -8.6040 c3         1 KAB      -0.087100
     18 C9           0.4540   -10.3900    -6.9690 c3         1 KAB       0.152000
     19 O6          -0.6540   -10.7430    -6.1080 os         1 KAB      -0.455000
     20 C47         -1.3910    -9.6330    -5.5600 c3         1 KAB       0.143900
     21 C10          1.5630    -9.7840    -6.1250 cc         1 KAB       0.193300
     22 C11          1.9850   -10.1310    -4.8720 cd         1 KAB       0.124900
     23 O7           3.0100    -9.3260    -4.4770 os         1 KAB      -0.259000
     24 N2           2.3190    -8.7380    -6.5670 nc         1 KAB      -0.642000
     25 C12          3.1670    -8.5090    -5.5680 cd         1 KAB       0.422000
     26 C13          4.2210    -7.5170    -5.6110 cd         1 KAB       0.190000
     27 C14          5.0800    -7.3290    -4.5640 cc         1 KAB       0.141900
     28 O8           5.9720    -6.3610    -4.9130 os         1 KAB      -0.251000
     29 N3           4.5480    -6.6630    -6.6480 nd         1 KAB      -0.609000
     30 C15          5.6080    -6.0080    -6.1880 cc         1 KAB       0.432000
     31 C16          6.4050    -5.0310    -6.9010 cc         1 KAB       0.186000
     32 N4           6.2170    -4.6120    -8.1920 nc         1 KAB      -0.647000
     33 C17          7.5100    -4.4260    -6.3790 cd         1 KAB       0.155900
     34 O9           8.0670    -3.6050    -7.3130 os         1 KAB      -0.242000
     35 C18          7.2330    -3.7870    -8.3860 cd         1 KAB       0.514800
     36 C19          7.5760    -3.2400    -9.6940 cf         1 KAB      -0.293800
     37 C20          6.8940    -3.5180   -10.8330 c2         1 KAB      -0.140200
     38 C21          7.2600    -3.0380   -12.2230 c3         1 KAB      -0.083200
     39 C22          7.3680    -4.1670   -13.3000 c3         1 KAB       0.187300
     40 O10          6.1680    -4.9720   -13.2910 os         1 KAB      -0.449000
     41 C46          4.9520    -4.3200   -13.7020 c3         1 KAB       0.142900
     42 C23          8.6220    -5.1120   -13.1930 c3         1 KAB      -0.058700
     43 C38          9.9240    -4.2790   -13.3650 c3         1 KAB      -0.094100
     44 C24          8.6570    -6.0590   -11.9360 c3         1 KAB       0.192300
     45 C25         10.0080    -6.8040   -11.6830 c3         1 KAB      -0.103400
     46 C26         10.4580    -7.8130   -12.7820 c3         1 KAB       0.184300
     47 O11          9.6520    -9.0020   -12.6160 os         1 KAB      -0.456000
     48 C45          9.5850    -9.8970   -13.7430 c3         1 KAB       0.148900
     49 C27         11.9750    -8.2100   -12.7130 c3         1 KAB      -0.093700
     50 C39         12.9000    -7.0240   -13.0920 c3         1 KAB      -0.088100
     51 C28         12.3730    -8.8620   -11.3540 c3         1 KAB      -0.062400
     52 C29         13.7970    -9.4780   -11.3290 c3         1 KAB      -0.178400
     53 C30         14.1810   -10.2210   -10.0360 c          1 KAB       0.585100
     54 O12         13.4070   -10.3240    -9.0900 o          1 KAB      -0.529100
     55 C31         15.5890   -10.8440   -10.0000 c3         1 KAB      -0.159700
     56 C40         15.4790   -12.3830    -9.8460 c3         1 KAB      -0.077100
     57 C32         16.4360   -10.1270    -8.9070 c3         1 KAB       0.180300
     58 O13         16.3830    -8.7200    -9.2460 os         1 KAB      -0.470000
     59 C44         16.7240    -7.7870    -8.2020 c3         1 KAB       0.147900
     60 C33         17.9380   -10.5760    -8.7700 c3         1 KAB      -0.024500
     61 C41         18.7470   -10.4550   -10.0840 c3         1 KAB      -0.078100
     62 C34         18.0850   -11.9570    -8.1510 c2         1 KAB      -0.313200
     63 C35         17.8220   -12.2470    -6.8670 c2         1 KAB       0.017000
     64 N5          17.9550   -13.5210    -6.3100 nh         1 KAB      -0.668400
     65 C43         17.9940   -13.6910    -4.8410 c3         1 KAB       0.204100
     66 C42         18.2080   -14.7340    -7.0980 c3         1 KAB       0.434800
     67 O14         19.6040   -14.9590    -7.2360 oh         1 KAB      -0.693000
     68 H7           2.9850   -11.1570    -7.8610 h1         1 KAB       0.074700
     69 H61          1.8650    -9.4820    -9.2550 hc         1 KAB       0.046200
     70 H62          1.3220   -10.6820   -10.3970 hc         1 KAB       0.046200
     71 H5           4.2860   -10.5270    -9.8780 hc         1 KAB       0.057700
     72 H361         2.7500   -10.8660   -12.5130 hc         1 KAB       0.036367
     73 H362         4.4850   -11.1480   -12.2470 hc         1 KAB       0.036367
     74 H363         3.3000   -12.2120   -11.5030 hc         1 KAB       0.036367
     75 H41          2.7270    -8.3450   -11.3380 hc         1 KAB       0.043200
     76 H42          3.7790    -8.1690    -9.9550 hc         1 KAB       0.043200
     77 H3           4.8830    -7.2100   -11.7910 h1         1 KAB       0.048700
     78 H48          5.7540    -7.2070   -13.9930 h3         1 KAB       0.101700
     79 HN11         3.7740    -8.7910   -15.3840 hn         1 KAB       0.411000
     80 HN12         3.5840    -7.2770   -14.9290 hn         1 KAB       0.411000
     81 H21          6.6650    -9.3760   -12.3070 hc         1 KAB       0.092700
     82 H22A         6.1490    -9.5740   -10.6100 hc         1 KAB       0.092700
     83 H8           1.0970   -12.4340    -6.9820 hc         1 KAB       0.071700
     84 H371        -1.1580   -12.4720    -7.9730 hc         1 KAB       0.037367
     85 H372        -0.6240   -11.4910    -9.3460 hc         1 KAB       0.037367
     86 H373        -0.0140   -13.1460    -9.1310 hc         1 KAB       0.037367
     87 H9           0.1300    -9.6400    -7.7030 h1         1 KAB       0.058700
     88 H471        -1.8050    -9.0070    -6.3600 h1         1 KAB       0.032367
     89 H472        -0.7520    -9.0070    -4.9230 h1         1 KAB       0.032367
     90 H473        -2.2250    -9.9980    -4.9470 h1         1 KAB       0.032367
     91 H111         1.6440   -10.8990    -4.1910 h4         1 KAB       0.074100
     92 H14          5.1690    -7.7910    -3.5910 h4         1 KAB       0.078100
     93 H17          7.9890    -4.5050    -5.4120 h4         1 KAB       0.076100
     94 H19          8.4630    -2.6080    -9.7180 ha         1 KAB       0.194000
     95 H20          6.0150    -4.1690   -10.7960 ha         1 KAB       0.204000
     96 H211         6.5180    -2.3040   -12.5550 hc         1 KAB       0.054700
     97 H212         8.2010    -2.4780   -12.1920 hc         1 KAB       0.054700
     98 H22          7.4470    -3.6660   -14.2750 h1         1 KAB       0.029700
     99 H461         5.0670    -3.8680   -14.6960 h1         1 KAB       0.029700
    100 H462         4.6580    -3.5370   -12.9920 h1         1 KAB       0.029700
    101 H463         4.1320    -5.0480   -13.7510 h1         1 KAB       0.029700
    102 H23          8.5690    -5.7660   -14.0720 hc         1 KAB       0.075700
    103 H381        10.1710    -3.7350   -12.4460 hc         1 KAB       0.039033
    104 H382        10.7740    -4.9210   -13.6210 hc         1 KAB       0.039033
    105 H383         9.8180    -3.5510   -14.1780 hc         1 KAB       0.039033
    106 H24          8.4560    -5.4540   -11.0470 h1         1 KAB       0.053700
    107 H251         9.9430    -7.3360   -10.7270 hc         1 KAB       0.067200
    108 H252        10.7870    -6.0530   -11.5250 hc         1 KAB       0.067200
    109 H26         10.2680    -7.3630   -13.7650 h1         1 KAB       0.046700
    110 H451         9.2740    -9.3600   -14.6490 h1         1 KAB       0.028700
    111 H452         8.8510   -10.6890   -13.5510 h1         1 KAB       0.028700
    112 H453        10.5520   -10.3780   -13.9330 h1         1 KAB       0.028700
    113 H27         12.1470    -8.9620   -13.4910 hc         1 KAB       0.047700
    114 H391        13.9250    -7.3670   -13.2720 hc         1 KAB       0.032367
    115 H392        12.9320    -6.2670   -12.3000 hc         1 KAB       0.032367
    116 H393        12.5540    -6.5440   -14.0150 hc         1 KAB       0.032367
    117 H281        11.6550    -9.6560   -11.1150 hc         1 KAB       0.058700
    118 H282        12.2960    -8.1180   -10.5520 hc         1 KAB       0.058700
    119 H291        14.5770    -8.7320   -11.5150 hc         1 KAB       0.061700
    120 H292        13.9600   -10.1650   -12.1680 hc         1 KAB       0.061700
    121 H31         16.0570   -10.6440   -10.9710 hc         1 KAB       0.066700
    122 H401        15.1690   -12.6560    -8.8300 hc         1 KAB       0.040700
    123 H402        14.7400   -12.7870   -10.5490 hc         1 KAB       0.040700
    124 H403        16.4340   -12.8730   -10.0660 hc         1 KAB       0.040700
    125 H32         15.9420   -10.2920    -7.9390 h1         1 KAB       0.055700
    126 H441        17.7930    -7.8270    -7.9580 h1         1 KAB       0.029367
    127 H442        16.1470    -7.9910    -7.2900 h1         1 KAB       0.029367
    128 H443        16.4970    -6.7630    -8.5240 h1         1 KAB       0.029367
    129 H33         18.4150    -9.8910    -8.0610 hc         1 KAB       0.042700
    130 H411        18.3880   -11.1640   -10.8390 hc         1 KAB       0.034700
    131 H412        19.8070   -10.6670    -9.9000 hc         1 KAB       0.034700
    132 H413        18.6740    -9.4430   -10.4990 hc         1 KAB       0.034700
    133 H34         18.4500   -12.7210    -8.8360 ha         1 KAB       0.179000
    134 H35         17.4820   -11.4760    -6.1700 h4         1 KAB       0.175000
    135 H431        18.1030   -14.7480    -4.5610 h1         1 KAB       0.035700
    136 H432        17.0670   -13.3120    -4.3900 h1         1 KAB       0.035700
    137 H433        18.8390   -13.1340    -4.4170 h1         1 KAB       0.035700
    138 H421        17.7460   -14.6270    -8.0880 h2         1 KAB       0.033200
    139 H422        17.7480   -15.5910    -6.5880 h2         1 KAB       0.033200
    140 HO1          5.6100    -9.9010   -14.5760 ho         1 KAB       0.448000
    141 HO2          1.9590   -13.0050    -9.7770 ho         1 KAB       0.438000
    142 HO3         19.6870   -15.7760    -7.7720 ho         1 KAB       0.450000
@<TRIPOS>BOND
     1     1     2 1   
     2     1   141 1   
     3     2     3 1   
     4     2    16 1   
     5     2    68 1   
     6     3     4 1   
     7     3    69 1   
     8     3    70 1   
     9     4     5 1   
    10     4     6 1   
    11     4    71 1   
    12     5    72 1   
    13     5    73 1   
    14     5    74 1   
    15     6     7 1   
    16     6    75 1   
    17     6    76 1   
    18     7     8 1   
    19     7    12 1   
    20     7    77 1   
    21     8     9 1   
    22     9    10 1   
    23     9    11 1   
    24     9    78 1   
    25    10    79 1   
    26    10    80 1   
    27    11   140 1   
    28    12    13 1   
    29    12    81 1   
    30    12    82 1   
    31    13    14 2   
    32    13    15 1   
    33    15    44 1   
    34    16    17 1   
    35    16    18 1   
    36    16    83 1   
    37    17    84 1   
    38    17    85 1   
    39    17    86 1   
    40    18    19 1   
    41    18    21 1   
    42    18    87 1   
    43    19    20 1   
    44    20    88 1   
    45    20    89 1   
    46    20    90 1   
    47    21    22 2   
    48    21    24 1   
    49    22    23 1   
    50    22    91 1   
    51    23    25 1   
    52    24    25 2   
    53    25    26 1   
    54    26    27 2   
    55    26    29 1   
    56    27    28 1   
    57    27    92 1   
    58    28    30 1   
    59    29    30 2   
    60    30    31 1   
    61    31    32 1   
    62    31    33 2   
    63    32    35 2   
    64    33    34 1   
    65    33    93 1   
    66    34    35 1   
    67    35    36 1   
    68    36    37 2   
    69    36    94 1   
    70    37    38 1   
    71    37    95 1   
    72    38    39 1   
    73    38    96 1   
    74    38    97 1   
    75    39    40 1   
    76    39    42 1   
    77    39    98 1   
    78    40    41 1   
    79    41    99 1   
    80    41   100 1   
    81    41   101 1   
    82    42    43 1   
    83    42    44 1   
    84    42   102 1   
    85    43   103 1   
    86    43   104 1   
    87    43   105 1   
    88    44    45 1   
    89    44   106 1   
    90    45    46 1   
    91    45   107 1   
    92    45   108 1   
    93    46    47 1   
    94    46    49 1   
    95    46   109 1   
    96    47    48 1   
    97    48   110 1   
    98    48   111 1   
    99    48   112 1   
   100    49    50 1   
   101    49    51 1   
   102    49   113 1   
   103    50   114 1   
   104    50   115 1   
   105    50   116 1   
   106    51    52 1   
   107    51   117 1   
   108    51   118 1   
   109    52    53 1   
   110    52   119 1   
   111    52   120 1   
   112    53    54 2   
   113    53    55 1   
   114    55    56 1   
   115    55    57 1   
   116    55   121 1   
   117    56   122 1   
   118    56   123 1   
   119    56   124 1   
   120    57    58 1   
   121    57    60 1   
   122    57   125 1   
   123    58    59 1   
   124    59   126 1   
   125    59   127 1   
   126    59   128 1   
   127    60    61 1   
   128    60    62 1   
   129    60   129 1   
   130    61   130 1   
   131    61   131 1   
   132    61   132 1   
   133    62    63 2   
   134    62   133 1   
   135    63    64 1   
   136    63   134 1   
   137    64    65 1   
   138    64    66 1   
   139    65   135 1   
   140    65   136 1   
   141    65   137 1   
   142    66    67 1   
   143    66   138 1   
   144    66   139 1   
   145    67   142 1   
@<TRIPOS>SUBSTRUCTURE
     1 KAB         1 TEMP              0 ****  ****    0 ROOT
