@<TRIPOS>MOLECULE
KAB
  142   145     1     0     0
SMALL
abcg2


@<TRIPOS>ATOM
      1 O5           2.1440   -12.6950    -9.4870 oh         1 KAB      -0.658000
      2 C7           1.7090   -11.3820    -9.1770 c3         1 KAB       0.179300
      3 C6           2.2130   -10.3280   -10.1620 c3         1 KAB      -0.110400
      4 C5           3.7150    -9.9960   -10.1150 c3         1 KAB      -0.043700
      5 C36          4.5740   -11.1350   -10.6620 c3         1 KAB      -0.088100
      6 C4           3.8990    -8.6670   -10.8660 c3         1 KAB      -0.097400
      7 C3           5.3100    -8.1160   -11.0970 c3         1 KAB       0.205300
      8 O3           6.0340    -8.9110   -12.0190 os         1 KAB      -0.531000
      9 C48          6.1940    -8.4050   -13.3220 c3         1 KAB       0.611500
     10 N1           4.9810    -8.0940   -14.0230 n8         1 KAB      -1.073200
     11 O4           6.9290    -9.3570   -14.0140 oh         1 KAB      -0.635000
     12 C2           6.0870    -8.0020    -9.7900 c3         1 KAB      -0.144400
     13 C1           7.3760    -7.2150    -9.7860 c          1 KAB       0.623100
     14 O1           8.0230    -7.0420    -8.7800 o          1 KAB      -0.509000
     15 O2           7.6880    -6.7080   -10.9640 os         1 KAB      -0.433100
     16 C8           0.1740   -11.3850    -9.0100 c3         1 KAB      -0.085700
     17 C37         -0.5520   -11.7140   -10.3120 c3         1 KAB      -0.087100
     18 C9          -0.3860   -10.0830    -8.4120 c3         1 KAB       0.152000
     19 O6          -1.7230   -10.3330    -8.0520 os         1 KAB      -0.455000
     20 C47         -2.4820    -9.1660    -7.8360 c3         1 KAB       0.143900
     21 C10          0.4000    -9.6080    -7.2280 cc         1 KAB       0.193300
     22 C11          0.3110    -9.9830    -5.9330 cd         1 KAB       0.124900
     23 O7           1.2720    -9.3120    -5.2460 os         1 KAB      -0.259000
     24 N2           1.4200    -8.6910    -7.3510 nc         1 KAB      -0.642000
     25 C12          1.8970    -8.5650    -6.1610 cd         1 KAB       0.422000
     26 C13          3.0050    -7.7410    -5.7440 cd         1 KAB       0.190000
     27 C14          3.5580    -7.5940    -4.5170 cc         1 KAB       0.141900
     28 O8           4.5840    -6.7270    -4.6470 os         1 KAB      -0.251000
     29 N3           3.6890    -6.9620    -6.6460 nd         1 KAB      -0.609000
     30 C15          4.6050    -6.3910    -5.9460 cc         1 KAB       0.432000
     31 C16          5.6280    -5.4880    -6.4070 cc         1 KAB       0.186000
     32 N4           5.6730    -5.0700    -7.7130 nc         1 KAB      -0.647000
     33 C17          6.6760    -4.9600    -5.7300 cd         1 KAB       0.155900
     34 O9           7.3770    -4.2210    -6.6110 os         1 KAB      -0.242000
     35 C18          6.7310    -4.3350    -7.7870 cd         1 KAB       0.514800
     36 C19          7.3140    -3.6910    -8.9410 cf         1 KAB      -0.293800
     37 C20          6.8150    -3.8540   -10.1670 c2         1 KAB      -0.140200
     38 C21          7.4180    -3.2760   -11.4000 c3         1 KAB      -0.083200
     39 C22          7.5660    -4.2690   -12.5690 c3         1 KAB       0.187300
     40 O10          6.3790    -4.9960   -12.7890 os         1 KAB      -0.449000
     41 C46          5.3360    -4.2300   -13.3370 c3         1 KAB       0.142900
     42 C23          8.7770    -5.2240   -12.4670 c3         1 KAB      -0.058700
     43 C38         10.0490    -4.4150   -12.7430 c3         1 KAB      -0.094100
     44 C24          8.9080    -5.9810   -11.1380 c3         1 KAB       0.192300
     45 C25         10.1270    -6.9040   -11.0400 c3         1 KAB      -0.103400
     46 C26         10.0070    -8.2750   -11.7010 c3         1 KAB       0.184300
     47 O11          9.3290    -9.0990   -10.7740 os         1 KAB      -0.456000
     48 C45          8.9410   -10.3610   -11.2550 c3         1 KAB       0.148900
     49 C27         11.3760    -8.8590   -12.1000 c3         1 KAB      -0.093700
     50 C39         11.9960    -8.0570   -13.2410 c3         1 KAB      -0.088100
     51 C28         12.3130    -8.9920   -10.8980 c3         1 KAB      -0.062400
     52 C29         13.5440    -9.8320   -11.1910 c3         1 KAB      -0.178400
     53 C30         14.4580   -10.0460   -10.0180 c          1 KAB       0.585100
     54 O12         14.2670    -9.5340    -8.9380 o          1 KAB      -0.529100
     55 C31         15.6340   -10.9890   -10.2420 c3         1 KAB      -0.159700
     56 C40         15.3960   -12.2580    -9.4240 c3         1 KAB      -0.077100
     57 C32         16.9130   -10.2260    -9.8990 c3         1 KAB       0.180300
     58 O13         16.8590    -9.0560   -10.7020 os         1 KAB      -0.470000
     59 C44         17.4630    -7.9300   -10.1170 c3         1 KAB       0.147900
     60 C33         18.2480   -10.9700   -10.1270 c3         1 KAB      -0.024500
     61 C41         18.3340   -11.6120   -11.5100 c3         1 KAB      -0.078100
     62 C34         18.5670   -11.9510    -9.0340 c2         1 KAB      -0.313200
     63 C35         19.4030   -11.6530    -8.0330 c2         1 KAB       0.017000
     64 N5          19.6690   -12.3950    -6.8980 nh         1 KAB      -0.668400
     65 C43         20.9830   -12.2640    -6.3060 c3         1 KAB       0.204100
     66 C42         18.9700   -13.6100    -6.6740 c3         1 KAB       0.434800
     67 O14         19.4800   -14.6480    -7.4870 oh         1 KAB      -0.693000
     68 H7           2.1520   -11.1670    -8.2000 h1         1 KAB       0.074700
     69 H61          1.6700    -9.4020    -9.9570 hc         1 KAB       0.046200
     70 H62          1.9420   -10.6100   -11.1880 hc         1 KAB       0.046200
     71 H5           3.9770    -9.8310    -9.0630 hc         1 KAB       0.057700
     72 H361         4.3440   -11.3230   -11.7140 hc         1 KAB       0.036367
     73 H362         5.6380   -10.9180   -10.5970 hc         1 KAB       0.036367
     74 H363         4.3900   -12.0560   -10.1120 hc         1 KAB       0.036367
     75 H41          3.4100    -8.7510   -11.8410 hc         1 KAB       0.043200
     76 H42          3.3390    -7.9010   -10.3190 hc         1 KAB       0.043200
     77 H3           5.1820    -7.1020   -11.4980 h1         1 KAB       0.048700
     78 H48          6.7980    -7.4950   -13.3030 h3         1 KAB       0.101700
     79 HN11         4.2830    -8.8230   -13.9240 hn         1 KAB       0.411000
     80 HN12         4.5700    -7.2320   -13.6930 hn         1 KAB       0.411000
     81 H21          6.3240    -8.9960    -9.3980 hc         1 KAB       0.092700
     82 H22A         5.4440    -7.5350    -9.0380 hc         1 KAB       0.092700
     83 H8          -0.0410   -12.1730    -8.2770 hc         1 KAB       0.071700
     84 H371        -1.6220   -11.8280   -10.1470 hc         1 KAB       0.037367
     85 H372        -0.4150   -10.9280   -11.0570 hc         1 KAB       0.037367
     86 H373        -0.2010   -12.6510   -10.7480 hc         1 KAB       0.037367
     87 H9          -0.3420    -9.2910    -9.1760 h1         1 KAB       0.058700
     88 H471        -2.4730    -8.5110    -8.7140 h1         1 KAB       0.032367
     89 H472        -2.1250    -8.5880    -6.9780 h1         1 KAB       0.032367
     90 H473        -3.5090    -9.4720    -7.6410 h1         1 KAB       0.032367
     91 H111        -0.3240   -10.6510    -5.3770 h4         1 KAB       0.074100
     92 H14          3.3600    -7.9990    -3.5390 h4         1 KAB       0.078100
     93 H17          7.0290    -5.0140    -4.7140 h4         1 KAB       0.076100
     94 H19          8.2200    -3.1190    -8.7750 ha         1 KAB       0.194000
     95 H20          5.9140    -4.4470   -10.2880 ha         1 KAB       0.204000
     96 H211         6.7810    -2.4510   -11.7380 hc         1 KAB       0.054700
     97 H212         8.3860    -2.8190   -11.1790 hc         1 KAB       0.054700
     98 H22          7.7590    -3.6550   -13.4610 h1         1 KAB       0.029700
     99 H461         5.6520    -3.6960   -14.2410 h1         1 KAB       0.029700
    100 H462         4.9280    -3.4930   -12.6370 h1         1 KAB       0.029700
    101 H463         4.5290    -4.9110   -13.6080 h1         1 KAB       0.029700
    102 H23          8.6600    -5.9500   -13.2810 hc         1 KAB       0.075700
    103 H381        10.3730    -3.8440   -11.8710 hc         1 KAB       0.039033
    104 H382        10.8810    -5.0510   -13.0420 hc         1 KAB       0.039033
    105 H383         9.8890    -3.7080   -13.5570 hc         1 KAB       0.039033
    106 H24          9.0070    -5.2420   -10.3380 h1         1 KAB       0.053700
    107 H251        10.3660    -7.0580    -9.9870 hc         1 KAB       0.067200
    108 H252        10.9810    -6.3630   -11.4480 hc         1 KAB       0.067200
    109 H26          9.4080    -8.2070   -12.6240 h1         1 KAB       0.046700
    110 H451         8.5430   -10.3070   -12.2700 h1         1 KAB       0.028700
    111 H452         8.1490   -10.7330   -10.6040 h1         1 KAB       0.028700
    112 H453         9.7620   -11.0870   -11.2400 h1         1 KAB       0.028700
    113 H27         11.1890    -9.8650   -12.4940 hc         1 KAB       0.047700
    114 H391        12.8820    -8.5530   -13.6370 hc         1 KAB       0.032367
    115 H392        12.2990    -7.0580   -12.9210 hc         1 KAB       0.032367
    116 H393        11.2920    -7.9410   -14.0680 hc         1 KAB       0.032367
    117 H281        11.7660    -9.4410   -10.0650 hc         1 KAB       0.058700
    118 H282        12.6240    -7.9990   -10.5610 hc         1 KAB       0.058700
    119 H291        14.1600    -9.3890   -11.9830 hc         1 KAB       0.061700
    120 H292        13.2650   -10.8190   -11.5790 hc         1 KAB       0.061700
    121 H31         15.6580   -11.2620   -11.3020 hc         1 KAB       0.066700
    122 H401        15.5350   -12.0810    -8.3570 hc         1 KAB       0.040700
    123 H402        14.3800   -12.6290    -9.5740 hc         1 KAB       0.040700
    124 H403        16.0700   -13.0570    -9.7250 hc         1 KAB       0.040700
    125 H32         16.8710    -9.9470    -8.8370 h1         1 KAB       0.055700
    126 H441        18.5240    -8.0840    -9.8930 h1         1 KAB       0.029367
    127 H442        16.9610    -7.6400    -9.1870 h1         1 KAB       0.029367
    128 H443        17.3860    -7.1040   -10.8230 h1         1 KAB       0.029367
    129 H33         19.0170   -10.1890   -10.0800 hc         1 KAB       0.042700
    130 H411        17.6500   -12.4570   -11.6100 hc         1 KAB       0.034700
    131 H412        19.3420   -11.9860   -11.6930 hc         1 KAB       0.034700
    132 H413        18.0980   -10.8960   -12.2990 hc         1 KAB       0.034700
    133 H34         18.0920   -12.9240    -9.0750 ha         1 KAB       0.179000
    134 H35         19.9250   -10.6990    -8.0480 h4         1 KAB       0.175000
    135 H431        20.9560   -12.6100    -5.2720 h1         1 KAB       0.035700
    136 H432        21.2790   -11.2150    -6.2950 h1         1 KAB       0.035700
    137 H433        21.7600   -12.8270    -6.8330 h1         1 KAB       0.035700
    138 H421        17.9070   -13.4360    -6.8800 h2         1 KAB       0.033200
    139 H422        19.0690   -13.8650    -5.6120 h2         1 KAB       0.033200
    140 HO1          6.4740   -10.2060   -13.9620 ho         1 KAB       0.448000
    141 HO2          2.0160   -12.8460   -10.4290 ho         1 KAB       0.438000
    142 HO3         18.9410   -15.4320    -7.3410 ho         1 KAB       0.450000
@<TRIPOS>BOND
     1     1     2 1   
     2     1   141 1   
     3     2     3 1   
     4     2    16 1   
     5     2    68 1   
     6     3     4 1   
     7     3    69 1   
     8     3    70 1   
     9     4     5 1   
    10     4     6 1   
    11     4    71 1   
    12     5    72 1   
    13     5    73 1   
    14     5    74 1   
    15     6     7 1   
    16     6    75 1   
    17     6    76 1   
    18     7     8 1   
    19     7    12 1   
    20     7    77 1   
    21     8     9 1   
    22     9    10 1   
    23     9    11 1   
    24     9    78 1   
    25    10    79 1   
    26    10    80 1   
    27    11   140 1   
    28    12    13 1   
    29    12    81 1   
    30    12    82 1   
    31    13    14 2   
    32    13    15 1   
    33    15    44 1   
    34    16    17 1   
    35    16    18 1   
    36    16    83 1   
    37    17    84 1   
    38    17    85 1   
    39    17    86 1   
    40    18    19 1   
    41    18    21 1   
    42    18    87 1   
    43    19    20 1   
    44    20    88 1   
    45    20    89 1   
    46    20    90 1   
    47    21    22 2   
    48    21    24 1   
    49    22    23 1   
    50    22    91 1   
    51    23    25 1   
    52    24    25 2   
    53    25    26 1   
    54    26    27 2   
    55    26    29 1   
    56    27    28 1   
    57    27    92 1   
    58    28    30 1   
    59    29    30 2   
    60    30    31 1   
    61    31    32 1   
    62    31    33 2   
    63    32    35 2   
    64    33    34 1   
    65    33    93 1   
    66    34    35 1   
    67    35    36 1   
    68    36    37 2   
    69    36    94 1   
    70    37    38 1   
    71    37    95 1   
    72    38    39 1   
    73    38    96 1   
    74    38    97 1   
    75    39    40 1   
    76    39    42 1   
    77    39    98 1   
    78    40    41 1   
    79    41    99 1   
    80    41   100 1   
    81    41   101 1   
    82    42    43 1   
    83    42    44 1   
    84    42   102 1   
    85    43   103 1   
    86    43   104 1   
    87    43   105 1   
    88    44    45 1   
    89    44   106 1   
    90    45    46 1   
    91    45   107 1   
    92    45   108 1   
    93    46    47 1   
    94    46    49 1   
    95    46   109 1   
    96    47    48 1   
    97    48   110 1   
    98    48   111 1   
    99    48   112 1   
   100    49    50 1   
   101    49    51 1   
   102    49   113 1   
   103    50   114 1   
   104    50   115 1   
   105    50   116 1   
   106    51    52 1   
   107    51   117 1   
   108    51   118 1   
   109    52    53 1   
   110    52   119 1   
   111    52   120 1   
   112    53    54 2   
   113    53    55 1   
   114    55    56 1   
   115    55    57 1   
   116    55   121 1   
   117    56   122 1   
   118    56   123 1   
   119    56   124 1   
   120    57    58 1   
   121    57    60 1   
   122    57   125 1   
   123    58    59 1   
   124    59   126 1   
   125    59   127 1   
   126    59   128 1   
   127    60    61 1   
   128    60    62 1   
   129    60   129 1   
   130    61   130 1   
   131    61   131 1   
   132    61   132 1   
   133    62    63 2   
   134    62   133 1   
   135    63    64 1   
   136    63   134 1   
   137    64    65 1   
   138    64    66 1   
   139    65   135 1   
   140    65   136 1   
   141    65   137 1   
   142    66    67 1   
   143    66   138 1   
   144    66   139 1   
   145    67   142 1   
@<TRIPOS>SUBSTRUCTURE
     1 KAB         1 TEMP              0 ****  ****    0 ROOT
