@<TRIPOS>MOLECULE
KAC
   27    27     1     0     0
SMALL
No Charge or Current Charge


@<TRIPOS>ATOM
      1 CBR          4.8080     0.5170     0.0030 c          1 KAC       0.719000
      2 OAD          5.1880     1.0240    -1.0420 o          1 KAC      -0.740000
      3 CBG          3.7280    -0.5770    -0.0720 c3         1 KAC      -0.206400
      4 CBC          2.3160     0.0570    -0.0180 c3         1 KAC      -0.070400
      5 CBE          1.1830    -0.9860    -0.0890 c3         1 KAC       0.086000
      6 NBL         -0.1370    -0.3580    -0.0350 ns         1 KAC      -0.486900
      7 CBS         -1.3300    -1.0470    -0.0800 c          1 KAC       0.600700
      8 OAE         -1.3500    -2.2680    -0.1700 o          1 KAC      -0.622100
      9 CBW         -2.6000    -0.2200    -0.0120 ca         1 KAC      -0.139600
     10 CAT         -2.5780     1.1940     0.0920 ca         1 KAC      -0.074000
     11 CAP         -3.7780     1.9260     0.1520 ca         1 KAC      -0.126000
     12 CAM         -5.0140     1.2640     0.1100 ca         1 KAC      -0.103000
     13 CAQ         -5.0520    -0.1350     0.0070 ca         1 KAC      -0.126000
     14 CAU         -3.8560    -0.8710    -0.0540 ca         1 KAC      -0.074000
     15 H44          3.7830    -1.1050    -1.0330 hc         1 KAC       0.020200
     16 H45          3.7930    -1.2400     0.8000 hc         1 KAC       0.020200
     17 H46          2.2150     0.6340     0.9100 hc         1 KAC       0.043200
     18 H47          2.2050     0.7640    -0.8500 hc         1 KAC       0.043200
     19 H48          1.2660    -1.5550    -1.0240 h1         1 KAC       0.043200
     20 H49          1.2750    -1.6860     0.7520 h1         1 KAC       0.043200
     21 H50         -0.1900     0.6490     0.0390 hn         1 KAC       0.312500
     22 H51         -1.6410     1.7450     0.1280 ha         1 KAC       0.127000
     23 H52         -3.7470     3.0100     0.2320 ha         1 KAC       0.109000
     24 H53         -5.9400     1.8330     0.1570 ha         1 KAC       0.105000
     25 H54         -6.0090    -0.6510    -0.0260 ha         1 KAC       0.109000
     26 H55         -3.9090    -1.9550    -0.1340 ha         1 KAC       0.127000
     27 OXT          5.2000     0.8650     1.1060 o          1 KAC      -0.740000
@<TRIPOS>BOND
     1     1     2 1   
     2     1     3 1   
     3     1    27 1   
     4     3     4 1   
     5     3    15 1   
     6     3    16 1   
     7     4     5 1   
     8     4    17 1   
     9     4    18 1   
    10     5     6 1   
    11     5    19 1   
    12     5    20 1   
    13     6     7 1   
    14     6    21 1   
    15     7     8 2   
    16     7     9 1   
    17     9    10 ar  
    18     9    14 ar  
    19    10    11 ar  
    20    10    22 1   
    21    11    12 ar  
    22    11    23 1   
    23    12    13 ar  
    24    12    24 1   
    25    13    14 ar  
    26    13    25 1   
    27    14    26 1   
@<TRIPOS>SUBSTRUCTURE
     1 KAC         1 TEMP              0 ****  ****    0 ROOT
