@<TRIPOS>MOLECULE
KAC
   27    27     1     0     0
SMALL
bcc


@<TRIPOS>ATOM
      1 CBR          4.8190     0.4290    -0.0340 c          1 KAC       0.929600
      2 OAD          4.5830     1.6490    -0.1300 o          1 KAC      -0.845300
      3 CBG          3.6210    -0.5360    -0.0200 c3         1 KAC      -0.206400
      4 CBC          2.2480     0.1150    -0.0560 c3         1 KAC      -0.070400
      5 CBE          1.1420    -0.9280    -0.0380 c3         1 KAC       0.086000
      6 NBL         -0.1630    -0.3000    -0.0890 ns         1 KAC      -0.553900
      7 CBS         -1.2960    -0.9500     0.2150 c          1 KAC       0.667700
      8 OAE         -1.3120    -2.1240     0.5660 o          1 KAC      -0.622100
      9 CBW         -2.5640    -0.1620     0.1040 ca         1 KAC      -0.139600
     10 CAT         -2.6000     1.2250     0.2350 ca         1 KAC      -0.092000
     11 CAP         -3.8060     1.9060     0.1480 ca         1 KAC      -0.144000
     12 CAM         -4.9860     1.2090    -0.0750 ca         1 KAC      -0.121000
     13 CAQ         -4.9570    -0.1750    -0.2010 ca         1 KAC      -0.144000
     14 CAU         -3.7540    -0.8570    -0.1020 ca         1 KAC      -0.092000
     15 H44          3.7260    -1.2190    -0.8720 hc         1 KAC       0.020200
     16 H45          3.7040    -1.1770     0.8650 hc         1 KAC       0.020200
     17 H46          2.1260     0.7850     0.7990 hc         1 KAC       0.043200
     18 H47          2.1540     0.7340    -0.9520 hc         1 KAC       0.043200
     19 H48          1.2650    -1.6190    -0.8790 h1         1 KAC       0.043200
     20 H49          1.2090    -1.5270     0.8720 h1         1 KAC       0.043200
     21 H50         -0.2190     0.6030    -0.5320 hn         1 KAC       0.312500
     22 H51         -1.6970     1.7880     0.4320 ha         1 KAC       0.145000
     23 H52         -3.8240     2.9820     0.2590 ha         1 KAC       0.127000
     24 H53         -5.9250     1.7410    -0.1470 ha         1 KAC       0.123000
     25 H54         -5.8730    -0.7240    -0.3750 ha         1 KAC       0.127000
     26 H55         -3.7380    -1.9340    -0.1920 ha         1 KAC       0.145000
     27 OXT          5.9460    -0.1030     0.0480 o          1 KAC      -0.845300
@<TRIPOS>BOND
     1     1     2 1   
     2     1     3 1   
     3     1    27 1   
     4     3     4 1   
     5     3    15 1   
     6     3    16 1   
     7     4     5 1   
     8     4    17 1   
     9     4    18 1   
    10     5     6 1   
    11     5    19 1   
    12     5    20 1   
    13     6     7 1   
    14     6    21 1   
    15     7     8 2   
    16     7     9 1   
    17     9    10 ar  
    18     9    14 ar  
    19    10    11 ar  
    20    10    22 1   
    21    11    12 ar  
    22    11    23 1   
    23    12    13 ar  
    24    12    24 1   
    25    13    14 ar  
    26    13    25 1   
    27    14    26 1   
@<TRIPOS>SUBSTRUCTURE
     1 KAC         1 TEMP              0 ****  ****    0 ROOT
