@<TRIPOS>MOLECULE
KAE
   60    64     1     0     0
SMALL
bcc


@<TRIPOS>ATOM
      1 N1          -5.1600    14.4370     6.4370 ns         1 KAE      -0.442100
      2 N3           0.3710    17.4460     3.2230 nh         1 KAE      -0.651000
      3 C4          -4.9490    15.3800     4.2470 ca         1 KAE      -0.124800
      4 C5          -5.2420    15.3130     2.8770 ca         1 KAE      -0.067000
      5 C6          -5.9740    14.2650     2.3640 ca         1 KAE      -0.165000
      6 C7          -4.4560    15.4320     7.0640 c          1 KAE       0.703700
      7 C8          -3.9430    16.4600     6.1740 cc         1 KAE      -0.214200
      8 C13         -0.4250    18.6630     3.1320 c6         1 KAE       0.180800
      9 C15          1.7520    17.5830     3.3020 ca         1 KAE       0.170600
     10 C17          3.8070    18.5460     2.4520 ca         1 KAE      -0.085000
     11 C20          2.5130    16.8870     4.2450 ca         1 KAE      -0.181000
     12 C21         -1.6290    15.3230     2.2280 c3         1 KAE       0.155800
     13 C22         -0.5890    13.4230     1.1870 c6         1 KAE       0.126300
     14 C24         -1.4700    11.7130     3.2120 c6         1 KAE       0.129400
     15 C1          -6.4290    13.2570     3.2170 ca         1 KAE      -0.070000
     16 C11         -1.6610    16.1100     3.5430 c6         1 KAE       0.113700
     17 C12         -0.2630    16.4430     4.0520 c6         1 KAE       0.182800
     18 C14         -1.8100    18.3610     2.5950 c6         1 KAE       0.087000
     19 C16          2.4350    18.4180     2.4040 ca         1 KAE      -0.165000
     20 C18          4.5560    17.8410     3.3870 ca         1 KAE      -0.008600
     21 C19          3.8940    17.0100     4.2760 ca         1 KAE       0.060400
     22 C2          -6.1640    13.3030     4.5690 ca         1 KAE      -0.187000
     23 C23         -0.0050    12.0480     1.4470 c6         1 KAE       0.129400
     24 C25         -2.0890    13.0810     2.9980 c6         1 KAE       0.126300
     25 C3          -5.4270    14.3680     5.0950 ca         1 KAE       0.101600
     26 C9          -4.1660    16.4280     4.8440 cd         1 KAE      -0.040400
     27 N2          -2.4420    17.3300     3.3990 n          1 KAE      -0.475800
     28 N4          -1.1090    13.9880     2.4210 n3         1 KAE      -0.722600
     29 O1          -4.2790    15.4230     8.2740 o          1 KAE      -0.614500
     30 O2          -4.2950    18.5590     3.8580 o          1 KAE      -0.576100
     31 O3          -0.9580    11.1770     2.0130 os         1 KAE      -0.400600
     32 CL1          6.2720    18.0080     3.4190 cl         1 KAE      -0.082400
     33 CL2          4.7760    16.1260     5.4670 cl         1 KAE      -0.084400
     34 H1          -5.5180    13.7000     7.0310 hn         1 KAE       0.330500
     35 H2          -4.8930    16.0920     2.2130 ha         1 KAE       0.143000
     36 H3          -6.1940    14.2240     1.3060 ha         1 KAE       0.142000
     37 H4          -3.3490    17.2440     6.6260 ha         1 KAE       0.167000
     38 H5           0.0480    19.3800     2.4650 h1         1 KAE       0.051700
     39 H6          -0.5110    19.1390     4.1200 h1         1 KAE       0.051700
     40 H7           4.3080    19.1900     1.7430 ha         1 KAE       0.149000
     41 H8           2.0450    16.2490     4.9810 ha         1 KAE       0.151000
     42 H9          -0.9830    15.8400     1.5140 h1         1 KAE       0.047200
     43 H10         -2.6390    15.3100     1.7880 h1         1 KAE       0.047200
     44 H12         -1.3690    13.3460     0.4110 h1         1 KAE       0.042950
     45 H13         -2.2240    11.0180     3.5860 h1         1 KAE       0.052700
     46 H14         -0.6760    11.7930     3.9680 h1         1 KAE       0.052700
     47 H15         -7.0010    12.4300     2.8180 ha         1 KAE       0.139000
     48 H16         -2.1270    15.4980     4.3140 h1         1 KAE       0.072700
     49 H17          0.3120    15.5170     4.0210 h1         1 KAE       0.060200
     50 H18         -0.3290    16.7650     5.1020 h1         1 KAE       0.060200
     51 H19         -2.4170    19.2620     2.6220 h1         1 KAE       0.068700
     52 H20         -1.7470    18.0340     1.5550 h1         1 KAE       0.068700
     53 H21          1.8960    18.9590     1.6390 ha         1 KAE       0.140000
     54 H22         -6.5250    12.5220     5.2270 ha         1 KAE       0.141000
     55 H23          0.3310    11.6020     0.5090 h1         1 KAE       0.052700
     56 H24          0.8700    12.1430     2.1070 h1         1 KAE       0.052700
     57 H25         -2.4310    13.4530     3.9660 h1         1 KAE       0.042950
     58 H26         -2.9820    12.9960     2.3550 h1         1 KAE       0.042950
     59 C10         -3.6350    17.5410     3.9830 c          1 KAE       0.678300
     60 H11          0.1970    14.0730     0.7960 h1         1 KAE       0.042950
@<TRIPOS>BOND
     1     1     6 1   
     2     1    25 1   
     3     1    34 1   
     4     2     8 1   
     5     2     9 1   
     6     2    17 1   
     7     3     4 ar  
     8     3    25 ar  
     9     3    26 1   
    10     4     5 ar  
    11     4    35 1   
    12     5    15 ar  
    13     5    36 1   
    14     6     7 1   
    15     6    29 2   
    16     7    26 2   
    17     7    37 1   
    18     8    18 1   
    19     8    38 1   
    20     8    39 1   
    21     9    11 ar  
    22     9    19 ar  
    23    10    19 ar  
    24    10    20 ar  
    25    10    40 1   
    26    11    21 ar  
    27    11    41 1   
    28    12    16 1   
    29    12    28 1   
    30    12    42 1   
    31    12    43 1   
    32    13    23 1   
    33    13    28 1   
    34    13    44 1   
    35    13    60 1   
    36    14    24 1   
    37    14    31 1   
    38    14    45 1   
    39    14    46 1   
    40    15    22 ar  
    41    15    47 1   
    42    16    17 1   
    43    16    27 1   
    44    16    48 1   
    45    17    49 1   
    46    17    50 1   
    47    18    27 1   
    48    18    51 1   
    49    18    52 1   
    50    19    53 1   
    51    20    21 ar  
    52    20    32 1   
    53    21    33 1   
    54    22    25 ar  
    55    22    54 1   
    56    23    31 1   
    57    23    55 1   
    58    23    56 1   
    59    24    28 1   
    60    24    57 1   
    61    24    58 1   
    62    26    59 1   
    63    27    59 1   
    64    30    59 2   
@<TRIPOS>SUBSTRUCTURE
     1 KAE         1 TEMP              0 ****  ****    0 ROOT
