@<TRIPOS>MOLECULE
KAE
   60    64     1     0     0
SMALL
No Charge or Current Charge


@<TRIPOS>ATOM
      1 N1          -5.5030    14.6300     6.5910 ns         1 KAE      -0.375100
      2 N3           0.3120    17.5080     3.3940 nh         1 KAE      -0.789400
      3 C4          -4.8310    15.4300     4.4090 ca         1 KAE      -0.124800
      4 C5          -4.8710    15.2760     3.0060 ca         1 KAE      -0.049000
      5 C6          -5.3630    14.0910     2.4310 ca         1 KAE      -0.147000
      6 C7          -5.1810    15.7730     7.2740 c          1 KAE       0.561200
      7 C8          -4.5740    16.8180     6.4370 cc         1 KAE      -0.264200
      8 C13         -0.5050    18.7380     3.1680 c6         1 KAE       0.180800
      9 C15          1.7230    17.5620     3.3650 ca         1 KAE       0.309000
     10 C17          3.7850    18.1590     2.1940 ca         1 KAE      -0.067000
     11 C20          2.4910    17.0770     4.4400 ca         1 KAE      -0.163000
     12 C21         -1.6040    15.3380     2.1480 c3         1 KAE       0.155800
     13 C22         -0.6080    13.4210     0.9290 c6         1 KAE       0.126300
     14 C24         -1.3230    11.5640     3.0220 c6         1 KAE       0.152600
     15 C1          -5.8420    13.0540     3.2470 ca         1 KAE      -0.052000
     16 C11         -1.8040    16.1010     3.5040 c6         1 KAE       0.113700
     17 C12         -0.4130    16.4230     4.1330 c6         1 KAE       0.182800
     18 C14         -1.9070    18.4070     2.5840 c6         1 KAE       0.087000
     19 C16          2.3810    18.1010     2.2440 ca         1 KAE      -0.147000
     20 C18          4.5460    17.6750     3.2710 ca         1 KAE       0.083000
     21 C19          3.8940    17.1320     4.3970 ca         1 KAE       0.152000
     22 C2          -5.8670    13.2230     4.6400 ca         1 KAE      -0.169000
     23 C23          0.0020    11.9940     1.0580 c6         1 KAE       0.152600
     24 C25         -1.9600    12.9830     2.9340 c6         1 KAE       0.126300
     25 C3          -5.3850    14.4120     5.2100 ca         1 KAE       0.101600
     26 C9          -4.3320    16.6630     5.0770 cd         1 KAE      -0.040400
     27 N2          -2.6120    17.3640     3.3850 n          1 KAE      -0.408800
     28 N4          -1.0480    13.9600     2.2530 n3         1 KAE      -0.722600
     29 O1          -5.3730    15.8850     8.4730 o          1 KAE      -0.539000
     30 O2          -3.6120    18.9190     4.7450 o          1 KAE      -0.576100
     31 O3          -0.9360    11.1030     1.7060 os         1 KAE      -0.447000
     32 Cl1          6.3060    17.7580     3.1850 cl         1 KAE      -0.174000
     33 Cl2          4.8130    16.5160     5.7700 cl         1 KAE      -0.176000
     34 H1          -5.9130    13.8880     7.1420 hn         1 KAE       0.330500
     35 H2          -4.5510    16.0770     2.3470 ha         1 KAE       0.125000
     36 H3          -5.3770    13.9790     1.3490 ha         1 KAE       0.124000
     37 H4          -4.2620    17.7030     6.9790 ha         1 KAE       0.217000
     38 H5           0.0040    19.4310     2.4830 h1         1 KAE       0.051700
     39 H6          -0.6370    19.2700     4.1220 h1         1 KAE       0.051700
     40 H7           4.2830    18.5760     1.3220 ha         1 KAE       0.131000
     41 H8           2.0060    16.6660     5.3190 ha         1 KAE       0.133000
     42 H9          -0.9380    15.9480     1.5230 h1         1 KAE       0.047200
     43 H10         -2.5650    15.3000     1.6220 h1         1 KAE       0.047200
     44 H12         -1.4590    13.3780     0.2330 h1         1 KAE       0.042950
     45 H13         -2.0450    10.8570     3.4550 h1         1 KAE       0.052700
     46 H14         -0.4380    11.5910     3.6740 h1         1 KAE       0.052700
     47 H15         -6.2220    12.1380     2.8000 ha         1 KAE       0.121000
     48 H16         -2.3040    15.4140     4.1930 h1         1 KAE       0.072700
     49 H17          0.1870    15.5010     4.1510 h1         1 KAE       0.060200
     50 H18         -0.5640    16.7280     5.1790 h1         1 KAE       0.060200
     51 H19         -2.5070    19.3260     2.5320 h1         1 KAE       0.068700
     52 H20         -1.7890    18.0530     1.5510 h1         1 KAE       0.068700
     53 H21          1.8010    18.4650     1.4010 ha         1 KAE       0.122000
     54 H22         -6.2810    12.4400     5.2710 ha         1 KAE       0.123000
     55 H23          0.2460    11.5990     0.0620 h1         1 KAE       0.052700
     56 H24          0.9300    12.0350     1.6470 h1         1 KAE       0.052700
     57 H25         -2.2040    13.3120     3.9530 h1         1 KAE       0.042950
     58 H26         -2.9080    12.9030     2.3840 h1         1 KAE       0.042950
     59 C10         -3.5340    17.7460     4.3940 c          1 KAE       0.611300
     60 H11          0.1440    14.0850     0.4780 h1         1 KAE       0.042950
@<TRIPOS>BOND
     1     1     6 1   
     2     1    25 1   
     3     1    34 1   
     4     2     8 1   
     5     2     9 1   
     6     2    17 1   
     7     3     4 ar  
     8     3    25 ar  
     9     3    26 1   
    10     4     5 ar  
    11     4    35 1   
    12     5    15 ar  
    13     5    36 1   
    14     6     7 1   
    15     6    29 2   
    16     7    26 2   
    17     7    37 1   
    18     8    18 1   
    19     8    38 1   
    20     8    39 1   
    21     9    11 ar  
    22     9    19 ar  
    23    10    19 ar  
    24    10    20 ar  
    25    10    40 1   
    26    11    21 ar  
    27    11    41 1   
    28    12    16 1   
    29    12    28 1   
    30    12    42 1   
    31    12    43 1   
    32    13    23 1   
    33    13    28 1   
    34    13    44 1   
    35    13    60 1   
    36    14    24 1   
    37    14    31 1   
    38    14    45 1   
    39    14    46 1   
    40    15    22 ar  
    41    15    47 1   
    42    16    17 1   
    43    16    27 1   
    44    16    48 1   
    45    17    49 1   
    46    17    50 1   
    47    18    27 1   
    48    18    51 1   
    49    18    52 1   
    50    19    53 1   
    51    20    21 ar  
    52    20    32 1   
    53    21    33 1   
    54    22    25 ar  
    55    22    54 1   
    56    23    31 1   
    57    23    55 1   
    58    23    56 1   
    59    24    28 1   
    60    24    57 1   
    61    24    58 1   
    62    26    59 1   
    63    27    59 1   
    64    30    59 2   
@<TRIPOS>SUBSTRUCTURE
     1 KAE         1 TEMP              0 ****  ****    0 ROOT
