@<TRIPOS>MOLECULE
KAF
   65    67     1     0     0
SMALL
bcc


@<TRIPOS>ATOM
      1 CD1          6.6020    -0.9150    -1.4440 ca         1 KAF      -0.129500
      2 CE1          6.3270    -1.3680    -2.7270 ca         1 KAF      -0.136500
      3 CZ           5.6670    -0.5440    -3.6300 ca         1 KAF      -0.154000
      4 CE2          5.2880     0.7330    -3.2390 ca         1 KAF      -0.136500
      5 CD2          5.5650     1.1800    -1.9530 ca         1 KAF      -0.129500
      6 CG           6.2240     0.3640    -1.0370 ca         1 KAF      -0.043300
      7 CB           6.4930     0.8210     0.3680 c3         1 KAF      -0.040100
      8 CA           5.4570     0.2910     1.3680 c3         1 KAF      -0.041300
      9 C            5.8450     0.6590     2.8270 c          1 KAF       0.924600
     10 OXT          6.9720     0.2620     3.1860 o          1 KAF      -0.824300
     11 O            5.0190     1.2970     3.4990 o          1 KAF      -0.824300
     12 N            4.1450     0.7600     1.0020 ns         1 KAF      -0.517900
     13 CBC          3.0150     0.1290     1.3490 c          1 KAF       0.670100
     14 OAA          2.9980    -1.0000     1.8270 o          1 KAF      -0.633100
     15 CAV          1.7420     0.9130     1.1010 c3         1 KAF      -0.158400
     16 CAW          0.6040     0.0180     0.6260 c3         1 KAF      -0.128400
     17 CBM         -0.7380     0.7490     0.5180 c3         1 KAF       0.352600
     18 OAE         -1.0710     1.3660     1.7280 oh         1 KAF      -0.588300
     19 OAF         -0.6820     1.8230    -0.3780 oh         1 KAF      -0.588300
     20 CBL         -1.8740    -0.2250     0.1060 c3         1 KAF       0.054700
     21 CAX         -1.6570    -0.8790    -1.2640 c3         1 KAF      -0.046100
     22 CBF         -2.7940    -1.7960    -1.6210 ca         1 KAF      -0.071300
     23 CAO         -2.8920    -3.0590    -1.0410 ca         1 KAF      -0.122500
     24 CAI         -3.9600    -3.8950    -1.3340 ca         1 KAF      -0.127000
     25 CAG         -4.9500    -3.4790    -2.2160 ca         1 KAF      -0.132000
     26 CAJ         -4.8610    -2.2240    -2.8020 ca         1 KAF      -0.127000
     27 CAP         -3.7890    -1.3920    -2.5050 ca         1 KAF      -0.122500
     28 NBA         -3.1420     0.4630     0.1110 ns         1 KAF      -0.546900
     29 CBE         -4.0380     0.3840     1.1080 c          1 KAF       0.687700
     30 OAC         -3.8420    -0.2380     2.1450 o          1 KAF      -0.617100
     31 CBG         -5.3290     1.1040     0.8780 ca         1 KAF      -0.137600
     32 CAR         -5.8640     1.2860    -0.3960 ca         1 KAF      -0.088000
     33 CAL         -7.0810     1.9320    -0.5590 ca         1 KAF      -0.141500
     34 CAH         -7.7710     2.4070     0.5480 ca         1 KAF      -0.115000
     35 CAK         -7.2450     2.2220     1.8210 ca         1 KAF      -0.141500
     36 CAQ         -6.0360     1.5660     1.9860 ca         1 KAF      -0.088000
     37 HD1          7.1220    -1.5630    -0.7480 ha         1 KAF       0.130000
     38 HE1          6.6340    -2.3630    -3.0220 ha         1 KAF       0.114500
     39 HZ           5.4530    -0.8930    -4.6320 ha         1 KAF       0.112000
     40 HE2          4.7760     1.3840    -3.9360 ha         1 KAF       0.114500
     41 HD2          5.2690     2.1800    -1.6610 ha         1 KAF       0.130000
     42 HB           7.4740     0.4770     0.6940 hc         1 KAF       0.059200
     43 HBA          6.5130     1.9150     0.4100 hc         1 KAF       0.059200
     44 HA           5.4510    -0.8000     1.2950 h1         1 KAF       0.067700
     45 HN           4.0670     1.7270     0.7300 hn         1 KAF       0.290500
     46 HAV          1.4700     1.3940     2.0450 hc         1 KAF       0.064200
     47 HAVA         1.9250     1.7180     0.3860 hc         1 KAF       0.064200
     48 HAW          0.8730    -0.4180    -0.3400 hc         1 KAF       0.059700
     49 HAWA         0.4890    -0.8230     1.3150 hc         1 KAF       0.059700
     50 HOAE        -1.3440     0.6950     2.3640 ho         1 KAF       0.424500
     51 HOAF        -0.0780     1.6170    -1.0980 ho         1 KAF       0.424500
     52 HBL         -1.9280    -1.0220     0.8540 h1         1 KAF       0.087700
     53 HAX         -1.5510    -0.1100    -2.0340 hc         1 KAF       0.057700
     54 HAXA        -0.7240    -1.4450    -1.2500 hc         1 KAF       0.057700
     55 HAO         -2.1220    -3.3950    -0.3540 ha         1 KAF       0.129500
     56 HAI         -4.0190    -4.8750    -0.8770 ha         1 KAF       0.127000
     57 HAG         -5.7820    -4.1320    -2.4480 ha         1 KAF       0.125000
     58 HAJ         -5.6260    -1.8910    -3.4930 ha         1 KAF       0.127000
     59 HAP         -3.7250    -0.4130    -2.9680 ha         1 KAF       0.129500
     60 HNBA        -3.3120     1.1110    -0.6410 hn         1 KAF       0.321500
     61 HAR         -5.3550     0.9020    -1.2710 ha         1 KAF       0.143000
     62 HAL         -7.4920     2.0590    -1.5520 ha         1 KAF       0.129000
     63 HAH         -8.7170     2.9160     0.4200 ha         1 KAF       0.126000
     64 HAK         -7.7810     2.5870     2.6880 ha         1 KAF       0.129000
     65 HAQ         -5.6350     1.4170     2.9800 ha         1 KAF       0.143000
@<TRIPOS>BOND
     1     1     2 ar  
     2     1     6 ar  
     3     1    37 1   
     4     2     3 ar  
     5     2    38 1   
     6     3     4 ar  
     7     3    39 1   
     8     4     5 ar  
     9     4    40 1   
    10     5     6 ar  
    11     5    41 1   
    12     6     7 1   
    13     7     8 1   
    14     7    42 1   
    15     7    43 1   
    16     8     9 1   
    17     8    12 1   
    18     8    44 1   
    19     9    10 1   
    20     9    11 1   
    21    12    13 1   
    22    12    45 1   
    23    13    14 2   
    24    13    15 1   
    25    15    16 1   
    26    15    46 1   
    27    15    47 1   
    28    16    17 1   
    29    16    48 1   
    30    16    49 1   
    31    17    18 1   
    32    17    19 1   
    33    17    20 1   
    34    18    50 1   
    35    19    51 1   
    36    20    21 1   
    37    20    28 1   
    38    20    52 1   
    39    21    22 1   
    40    21    53 1   
    41    21    54 1   
    42    22    23 ar  
    43    22    27 ar  
    44    23    24 ar  
    45    23    55 1   
    46    24    25 ar  
    47    24    56 1   
    48    25    26 ar  
    49    25    57 1   
    50    26    27 ar  
    51    26    58 1   
    52    27    59 1   
    53    28    29 1   
    54    28    60 1   
    55    29    30 2   
    56    29    31 1   
    57    31    32 ar  
    58    31    36 ar  
    59    32    33 ar  
    60    32    61 1   
    61    33    34 ar  
    62    33    62 1   
    63    34    35 ar  
    64    34    63 1   
    65    35    36 ar  
    66    35    64 1   
    67    36    65 1   
@<TRIPOS>SUBSTRUCTURE
     1 KAF         1 TEMP              0 ****  ****    0 ROOT
