@<TRIPOS>MOLECULE
KAF
   65    67     1     0     0
SMALL
No Charge or Current Charge


@<TRIPOS>ATOM
      1 CD1          4.6710    -1.8030    -0.5770 ca         1 KAF      -0.111500
      2 CE1          3.6460    -2.6620    -1.0100 ca         1 KAF      -0.118500
      3 CZ           2.6600    -2.1920    -1.8930 ca         1 KAF      -0.136000
      4 CE2          2.7000    -0.8620    -2.3440 ca         1 KAF      -0.118500
      5 CD2          3.7230    -0.0020    -1.9080 ca         1 KAF      -0.111500
      6 CG           4.7160    -0.4670    -1.0210 ca         1 KAF      -0.043300
      7 CB           5.8220     0.4710    -0.5420 c3         1 KAF      -0.040100
      8 CA           5.7500     0.7950     0.9730 c3         1 KAF      -0.041300
      9 C            6.7950     1.8780     1.3790 c          1 KAF       0.714000
     10 OXT          7.7290     1.5380     2.0910 o          1 KAF      -0.719000
     11 O            6.6030     3.0360     1.0320 o          1 KAF      -0.719000
     12 N            4.3800     1.2050     1.3720 ns         1 KAF      -0.450900
     13 CBC          3.4710     0.4020     2.0270 c          1 KAF       0.603100
     14 OAA          3.7690    -0.6860     2.5030 o          1 KAF      -0.633100
     15 CAV          2.0590     0.9870     2.1440 c3         1 KAF      -0.158400
     16 CAW          1.0810     0.2590     1.1730 c3         1 KAF      -0.128400
     17 CBM         -0.3990     0.7390     1.1780 c3         1 KAF       0.399000
     18 OAE         -0.8670     0.7370     2.5070 oh         1 KAF      -0.650500
     19 OAF         -0.4590     2.0890     0.7720 oh         1 KAF      -0.650500
     20 CBL         -1.3630    -0.1370     0.2830 c3         1 KAF       0.054700
     21 CAX         -0.8150    -0.4210    -1.1440 c3         1 KAF      -0.046100
     22 CBF         -1.8210    -1.1290    -2.0470 ca         1 KAF      -0.071300
     23 CAO         -2.1960    -2.4610    -1.7820 ca         1 KAF      -0.104500
     24 CAI         -3.1350    -3.1110    -2.6020 ca         1 KAF      -0.109000
     25 CAG         -3.7050    -2.4330    -3.6920 ca         1 KAF      -0.114000
     26 CAJ         -3.3340    -1.1050    -3.9630 ca         1 KAF      -0.109000
     27 CAP         -2.3940    -0.4550    -3.1440 ca         1 KAF      -0.104500
     28 NBA         -2.7300     0.4200     0.1580 ns         1 KAF      -0.479900
     29 CBE         -3.6890     0.4420     1.1410 c          1 KAF       0.620700
     30 OAC         -3.4300     0.0570     2.2730 o          1 KAF      -0.617100
     31 CBG         -5.0570     0.9630     0.7510 ca         1 KAF      -0.137600
     32 CAR         -5.3720     1.3350    -0.5800 ca         1 KAF      -0.070000
     33 CAL         -6.6550     1.8110    -0.9040 ca         1 KAF      -0.123500
     34 CAH         -7.6400     1.9220     0.0890 ca         1 KAF      -0.097000
     35 CAK         -7.3430     1.5550     1.4100 ca         1 KAF      -0.123500
     36 CAQ         -6.0630     1.0780     1.7390 ca         1 KAF      -0.070000
     37 HD1          5.4290    -2.1740     0.1090 ha         1 KAF       0.112000
     38 HE1          3.6160    -3.6910    -0.6590 ha         1 KAF       0.096500
     39 HZ           1.8670    -2.8560    -2.2280 ha         1 KAF       0.094000
     40 HE2          1.9380    -0.4970    -3.0280 ha         1 KAF       0.096500
     41 HD2          3.7410     1.0270    -2.2590 ha         1 KAF       0.112000
     42 HB           6.8030     0.0310    -0.7620 hc         1 KAF       0.059200
     43 HBA          5.7830     1.4110    -1.1060 hc         1 KAF       0.059200
     44 HA           6.0130    -0.1160     1.5250 h1         1 KAF       0.067700
     45 HN           4.0460     2.1070     1.0560 hn         1 KAF       0.290500
     46 HAV          1.7130     0.8460     3.1740 hc         1 KAF       0.064200
     47 HAVA         2.0830     2.0550     1.9000 hc         1 KAF       0.064200
     48 HAW          1.4850     0.3600     0.1590 hc         1 KAF       0.059700
     49 HAWA         1.0950    -0.8140     1.4030 hc         1 KAF       0.059700
     50 HOAE        -1.8320     0.5190     2.4390 ho         1 KAF       0.463500
     51 HOAF         0.2830     2.5270     1.2330 ho         1 KAF       0.463500
     52 HBL         -1.4590    -1.1130     0.7790 h1         1 KAF       0.087700
     53 HAX         -0.4960     0.5240    -1.6010 hc         1 KAF       0.057700
     54 HAXA         0.0830    -1.0430    -1.0670 hc         1 KAF       0.057700
     55 HAO         -1.7610    -2.9930    -0.9390 ha         1 KAF       0.111500
     56 HAI         -3.4210    -4.1390    -2.3910 ha         1 KAF       0.109000
     57 HAG         -4.4320    -2.9350    -4.3260 ha         1 KAF       0.107000
     58 HAJ         -3.7740    -0.5790    -4.8080 ha         1 KAF       0.109000
     59 HAP         -2.1150     0.5730    -3.3630 ha         1 KAF       0.111500
     60 HNBA        -3.0070     0.7740    -0.7470 hn         1 KAF       0.321500
     61 HAR         -4.6390     1.2560    -1.3790 ha         1 KAF       0.125000
     62 HAL         -6.8860     2.0920    -1.9290 ha         1 KAF       0.111000
     63 HAH         -8.6320     2.2910    -0.1650 ha         1 KAF       0.108000
     64 HAK         -8.1060     1.6390     2.1810 ha         1 KAF       0.111000
     65 HAQ         -5.8530     0.7980     2.7700 ha         1 KAF       0.125000
@<TRIPOS>BOND
     1     1     2 ar  
     2     1     6 ar  
     3     1    37 1   
     4     2     3 ar  
     5     2    38 1   
     6     3     4 ar  
     7     3    39 1   
     8     4     5 ar  
     9     4    40 1   
    10     5     6 ar  
    11     5    41 1   
    12     6     7 1   
    13     7     8 1   
    14     7    42 1   
    15     7    43 1   
    16     8     9 1   
    17     8    12 1   
    18     8    44 1   
    19     9    10 1   
    20     9    11 1   
    21    12    13 1   
    22    12    45 1   
    23    13    14 2   
    24    13    15 1   
    25    15    16 1   
    26    15    46 1   
    27    15    47 1   
    28    16    17 1   
    29    16    48 1   
    30    16    49 1   
    31    17    18 1   
    32    17    19 1   
    33    17    20 1   
    34    18    50 1   
    35    19    51 1   
    36    20    21 1   
    37    20    28 1   
    38    20    52 1   
    39    21    22 1   
    40    21    53 1   
    41    21    54 1   
    42    22    23 ar  
    43    22    27 ar  
    44    23    24 ar  
    45    23    55 1   
    46    24    25 ar  
    47    24    56 1   
    48    25    26 ar  
    49    25    57 1   
    50    26    27 ar  
    51    26    58 1   
    52    27    59 1   
    53    28    29 1   
    54    28    60 1   
    55    29    30 2   
    56    29    31 1   
    57    31    32 ar  
    58    31    36 ar  
    59    32    33 ar  
    60    32    61 1   
    61    33    34 ar  
    62    33    62 1   
    63    34    35 ar  
    64    34    63 1   
    65    35    36 ar  
    66    35    64 1   
    67    36    65 1   
@<TRIPOS>SUBSTRUCTURE
     1 KAF         1 TEMP              0 ****  ****    0 ROOT
