@<TRIPOS>MOLECULE
KAH
   22    21     1     0     0
SMALL
No Charge or Current Charge


@<TRIPOS>ATOM
      1 C4          -0.4630     0.2390     1.2070 c3         1 KAH       0.118300
      2 C5           0.5270     0.3180     2.4220 c3         1 KAH       0.132500
      3 N5           1.2570    -0.9550     2.6250 n8         1 KAH      -1.016200
      4 C6          -0.1820     0.7210     3.7350 c3         1 KAH      -0.078100
      5 C3           0.2620     0.1310    -0.1620 c3         1 KAH      -0.086400
      6 C2          -0.6830     0.2070    -1.3930 c3         1 KAH      -0.205400
      7 C1           0.1370     0.2250    -2.6970 c          1 KAH       0.716000
      8 O1           0.4230    -0.8440    -3.2120 o          1 KAH      -0.741500
      9 OH1          0.5070     1.3060    -3.1300 o          1 KAH      -0.741500
     10 OXT         -1.3470    -0.8880     1.3560 oh         1 KAH      -0.666000
     11 H4          -1.0460     1.1720     1.1950 h1         1 KAH       0.066700
     12 H5           1.2680     1.1020     2.2050 h1         1 KAH       0.059700
     13 HN51         0.5490    -1.6980     2.5900 hn         1 KAH       0.395500
     14 HN52         1.8170    -1.1440     1.7860 hn         1 KAH       0.395500
     15 HC1          0.5420     0.8220     4.5520 hc         1 KAH       0.030367
     16 HC2         -0.6900     1.6850     3.6150 hc         1 KAH       0.030367
     17 HC3         -0.9310    -0.0250     4.0280 hc         1 KAH       0.030367
     18 HC31         0.9910     0.9490    -0.2320 hc         1 KAH       0.041700
     19 HC32         0.8370    -0.8030    -0.2080 hc         1 KAH       0.041700
     20 HC21        -1.3130    -0.6900    -1.3590 hc         1 KAH       0.023700
     21 HC22        -1.2420     1.1450    -1.2860 hc         1 KAH       0.023700
     22 HXT         -1.8310    -0.9760     0.5070 ho         1 KAH       0.429000
@<TRIPOS>BOND
     1     1     2 1   
     2     1     5 1   
     3     1    10 1   
     4     1    11 1   
     5     2     3 1   
     6     2     4 1   
     7     2    12 1   
     8     3    13 1   
     9     3    14 1   
    10     4    15 1   
    11     4    16 1   
    12     4    17 1   
    13     5     6 1   
    14     5    18 1   
    15     5    19 1   
    16     6     7 1   
    17     6    20 1   
    18     6    21 1   
    19     7     8 1   
    20     7     9 1   
    21    10    22 1   
@<TRIPOS>SUBSTRUCTURE
     1 KAH         1 TEMP              0 ****  ****    0 ROOT
