@<TRIPOS>MOLECULE
KAH
   22    21     1     0     0
SMALL
bcc


@<TRIPOS>ATOM
      1 C4          -0.4790     0.2780     1.1650 c3         1 KAH       0.095100
      2 C5           0.4740     0.3950     2.3700 c3         1 KAH       0.132500
      3 N5           1.3550    -0.7500     2.5720 n8         1 KAH      -0.905800
      4 C6          -0.2970     0.6610     3.6550 c3         1 KAH      -0.078100
      5 C3           0.2620     0.1950    -0.1650 c3         1 KAH      -0.086400
      6 C2          -0.6610     0.1960    -1.3740 c3         1 KAH      -0.205400
      7 C1           0.0360     0.1890    -2.7460 c          1 KAH       0.926600
      8 O1          -0.7180     0.1010    -3.7390 o          1 KAH      -0.846800
      9 OH1          1.2790     0.2790    -2.7720 o          1 KAH      -0.846800
     10 OXT         -1.3890    -0.7980     1.3300 oh         1 KAH      -0.603800
     11 H4          -1.1010     1.1820     1.1530 h1         1 KAH       0.066700
     12 H5           1.1170     1.2610     2.1760 h1         1 KAH       0.059700
     13 HN51         0.8080    -1.5890     2.7270 hn         1 KAH       0.340300
     14 HN52         1.9140    -0.9230     1.7450 hn         1 KAH       0.340300
     15 HC1          0.3860     0.8040     4.4930 hc         1 KAH       0.030367
     16 HC2         -0.9130     1.5570     3.5660 hc         1 KAH       0.030367
     17 HC3         -0.9590    -0.1720     3.8980 hc         1 KAH       0.030367
     18 HC31         0.9520     1.0400    -0.2290 hc         1 KAH       0.041700
     19 HC32         0.8880    -0.7050    -0.1830 hc         1 KAH       0.041700
     20 HC21        -1.3390    -0.6610    -1.3320 hc         1 KAH       0.023700
     21 HC22        -1.3140     1.0770    -1.3340 hc         1 KAH       0.023700
     22 HXT         -0.9120    -1.6190     1.1680 ho         1 KAH       0.390000
@<TRIPOS>BOND
     1     1     2 1   
     2     1     5 1   
     3     1    10 1   
     4     1    11 1   
     5     2     3 1   
     6     2     4 1   
     7     2    12 1   
     8     3    13 1   
     9     3    14 1   
    10     4    15 1   
    11     4    16 1   
    12     4    17 1   
    13     5     6 1   
    14     5    18 1   
    15     5    19 1   
    16     6     7 1   
    17     6    20 1   
    18     6    21 1   
    19     7     8 1   
    20     7     9 1   
    21    10    22 1   
@<TRIPOS>SUBSTRUCTURE
     1 KAH         1 TEMP              0 ****  ****    0 ROOT
