@<TRIPOS>MOLECULE
KAI
   28    28     1     0     0
SMALL
bcc


@<TRIPOS>ATOM
      1 N            0.3380    -1.7140    -1.3130 n7         1 KAI      -0.798200
      2 CD          -1.1110    -1.5640    -1.2210 c5         1 KAI       0.165800
      3 CD1         -3.7240    -0.3580    -0.4870 c2         1 KAI      -0.298000
      4 CD2         -2.8900     0.3170     1.7410 c3         1 KAI      -0.064900
      5 CA           0.9600    -0.7490    -0.3990 c5         1 KAI       0.010500
      6 CB          -0.1910     0.0830     0.2190 c5         1 KAI      -0.028700
      7 CB1         -0.4440     1.3830    -0.5470 c3         1 KAI      -0.194400
      8 CG          -1.3690    -0.9100     0.1320 c5         1 KAI      -0.090500
      9 CG1          0.7110     2.3790    -0.3680 c          1 KAI       0.932600
     10 CG2         -2.7220    -0.3180     0.3910 c2         1 KAI      -0.032400
     11 C            1.8020    -1.4390     0.6970 c          1 KAI       0.908600
     12 O            1.7280    -2.6840     0.7850 o          1 KAI      -0.851300
     13 OD1          1.4140     2.6400    -1.3680 o          1 KAI      -0.860300
     14 OD2          0.8590     2.8530     0.7780 o          1 KAI      -0.860300
     15 OXT          2.4900    -0.6880     1.4130 o          1 KAI      -0.851300
     16 HN1          0.5870    -2.6260    -0.9420 hn         1 KAI       0.357800
     17 HD1         -1.4840    -0.9250    -2.0300 h1         1 KAI       0.010200
     18 HD2         -1.6060    -2.5310    -1.3330 h1         1 KAI       0.010200
     19 HD11        -4.6910     0.0730    -0.2540 ha         1 KAI       0.089500
     20 HD12        -3.6270    -0.8160    -1.4630 ha         1 KAI       0.089500
     21 HD21        -2.6920    -0.4060     2.5360 hc         1 KAI       0.036700
     22 HD22        -2.1790     1.1350     1.8790 hc         1 KAI       0.036700
     23 HD23        -3.8950     0.7120     1.8840 hc         1 KAI       0.036700
     24 HA           1.6300    -0.0770    -0.9470 h1         1 KAI       0.096700
     25 HB           0.0350     0.3440     1.2540 hc         1 KAI       0.080700
     26 HB11        -0.6070     1.1710    -1.6080 hc         1 KAI       0.006200
     27 HB12        -1.3640     1.8460    -0.1730 hc         1 KAI       0.006200
     28 HG          -1.1970    -1.6710     0.9070 hc         1 KAI       0.056700
@<TRIPOS>BOND
     1     1     2 1   
     2     1     5 1   
     3     1    16 1   
     4     2     8 1   
     5     2    17 1   
     6     2    18 1   
     7     3    10 2   
     8     3    19 1   
     9     3    20 1   
    10     4    10 1   
    11     4    21 1   
    12     4    22 1   
    13     4    23 1   
    14     5     6 1   
    15     5    11 1   
    16     5    24 1   
    17     6     7 1   
    18     6     8 1   
    19     6    25 1   
    20     7     9 1   
    21     7    26 1   
    22     7    27 1   
    23     8    10 1   
    24     8    28 1   
    25     9    13 1   
    26     9    14 1   
    27    11    12 1   
    28    11    15 1   
@<TRIPOS>SUBSTRUCTURE
     1 KAI         1 TEMP              0 ****  ****    0 ROOT
