@<TRIPOS>MOLECULE
KAI
   28    28     1     0     0
SMALL
No Charge or Current Charge


@<TRIPOS>ATOM
      1 N            0.2710    -1.9630    -1.1950 n7         1 KAI      -0.853400
      2 CD          -1.1570    -1.5980    -1.2420 c5         1 KAI       0.165800
      3 CD1         -3.6450    -0.1900    -0.5920 c2         1 KAI      -0.398000
      4 CD2         -3.0560     0.1470     1.8120 c3         1 KAI      -0.064900
      5 CA           0.9520    -0.8010    -0.4890 c5         1 KAI       0.010500
      6 CB          -0.1890     0.0490     0.1950 c5         1 KAI      -0.028700
      7 CB1         -0.4570     1.4290    -0.4990 c3         1 KAI      -0.194400
      8 CG          -1.3700    -0.9800     0.1640 c5         1 KAI      -0.090500
      9 CG1          0.7460     2.3810    -0.3360 c          1 KAI       0.722000
     10 CG2         -2.7460    -0.3210     0.4020 c2         1 KAI      -0.032400
     11 C            2.0140    -1.2190     0.6110 c          1 KAI       0.698000
     12 O            1.8130    -2.2240     1.2830 o          1 KAI      -0.746000
     13 OD1          1.5790     2.4280    -1.2290 o          1 KAI      -0.755000
     14 OD2          0.8210     3.0430     0.6880 o          1 KAI      -0.755000
     15 OXT          3.0660    -0.6000     0.6930 o          1 KAI      -0.746000
     16 HN1          0.3560    -2.7700    -0.5620 hn         1 KAI       0.413000
     17 HD1         -1.3360    -0.8770    -2.0510 h1         1 KAI       0.010200
     18 HD2         -1.7890    -2.4790    -1.4150 h1         1 KAI       0.010200
     19 HD11        -4.6170     0.2690    -0.4100 ha         1 KAI       0.139500
     20 HD12        -3.4690    -0.5200    -1.6130 ha         1 KAI       0.139500
     21 HD21        -3.0070    -0.6880     2.5210 hc         1 KAI       0.036700
     22 HD22        -2.3390     0.9080     2.1440 hc         1 KAI       0.036700
     23 HD23        -4.0580     0.5850     1.8870 hc         1 KAI       0.036700
     24 HA           1.4950    -0.1870    -1.2200 h1         1 KAI       0.096700
     25 HB           0.0660     0.2860     1.2350 hc         1 KAI       0.080700
     26 HB11        -0.6460     1.2380    -1.5630 hc         1 KAI       0.006200
     27 HB12        -1.3180     1.8680     0.0170 hc         1 KAI       0.006200
     28 HG          -1.2200    -1.7550     0.9260 hc         1 KAI       0.056700
@<TRIPOS>BOND
     1     1     2 1   
     2     1     5 1   
     3     1    16 1   
     4     2     8 1   
     5     2    17 1   
     6     2    18 1   
     7     3    10 2   
     8     3    19 1   
     9     3    20 1   
    10     4    10 1   
    11     4    21 1   
    12     4    22 1   
    13     4    23 1   
    14     5     6 1   
    15     5    11 1   
    16     5    24 1   
    17     6     7 1   
    18     6     8 1   
    19     6    25 1   
    20     7     9 1   
    21     7    26 1   
    22     7    27 1   
    23     8    10 1   
    24     8    28 1   
    25     9    13 1   
    26     9    14 1   
    27    11    12 1   
    28    11    15 1   
@<TRIPOS>SUBSTRUCTURE
     1 KAI         1 TEMP              0 ****  ****    0 ROOT
