@<TRIPOS>MOLECULE
KAL
   86    85     1     0     0
SMALL
bcc


@<TRIPOS>ATOM
      1 C01          6.5310     0.8950    -2.9410 c2         1 KAL      -0.241000
      2 C02          7.3670     1.0560    -1.9170 c2         1 KAL      -0.095400
      3 C03          6.9230     1.7520    -0.6510 c3         1 KAL      -0.036200
      4 C04          6.0460     0.8620     0.2460 c3         1 KAL      -0.051200
      5 C05          5.6930     1.5430     1.5300 c2         1 KAL      -0.130200
      6 C06          4.5230     2.1120     1.8420 ce         1 KAL      -0.157000
      7 C07          3.3470     2.1850     0.9900 ce         1 KAL      -0.115000
      8 C08          2.1930     2.7420     1.3730 c2         1 KAL      -0.178200
      9 C09          0.9710     2.8460     0.5230 c3         1 KAL      -0.038200
     10 C10         -0.2120     2.0170     1.0530 c3         1 KAL      -0.044700
     11 C11          0.1010     0.5260     0.9950 c3         1 KAL      -0.090100
     12 C12         -1.4580     2.3530     0.2430 c3         1 KAL      -0.178400
     13 C13         -2.7660     1.8250     0.7750 c          1 KAL       0.576100
     14 O14         -2.9040     1.4340     1.9110 o          1 KAL      -0.500100
     15 C15         -3.9000     1.8190    -0.2230 c3         1 KAL      -0.222400
     16 C16         -5.2920     1.7840     0.3910 c3         1 KAL       0.131100
     17 O17         -5.5500     2.9260     1.1750 oh         1 KAL      -0.578800
     18 C18         -6.3370     1.6080    -0.7110 c3         1 KAL       0.071000
     19 N19         -7.6850     1.5070    -0.2080 ns         1 KAL      -0.570900
     20 C20         -8.2180     0.3530     0.2270 c          1 KAL       0.673100
     21 O21         -7.5900    -0.6970     0.2470 o          1 KAL      -0.588100
     22 C22         -9.6670     0.4390     0.6810 c3         1 KAL      -0.138700
     23 C23         -9.8600    -0.2810     2.0110 c3         1 KAL      -0.078100
     24 C24        -10.6290    -0.0740    -0.3980 c3         1 KAL       0.180100
     25 C25        -10.4820     0.6310    -1.7350 c3         1 KAL      -0.121100
     26 O26        -10.3960    -1.4770    -0.5510 os         1 KAL      -0.425900
     27 C27        -11.4140    -2.2600    -0.9230 c          1 KAL       0.757100
     28 N28        -11.0110    -3.5370    -1.0450 nt         1 KAL      -0.661000
     29 O29        -12.5420    -1.8640    -1.1380 o          1 KAL      -0.605000
     30 C30          8.7850     0.5610    -1.9640 c3         1 KAL      -0.045200
     31 C31          9.1210    -0.5300    -0.9380 c3         1 KAL      -0.053700
     32 C32          8.3600    -1.8180    -1.2220 c3         1 KAL      -0.083100
     33 C33         10.6380    -0.7690    -0.9400 c3         1 KAL      -0.032200
     34 C34         11.1110    -1.8120     0.0370 c2         1 KAL      -0.167400
     35 C35         10.8290    -1.4920     1.4750 c3         1 KAL      -0.038900
     36 C36         11.7210    -2.9150    -0.4160 ce         1 KAL      -0.187200
     37 C37         12.2840    -4.1010     0.3310 c          1 KAL       0.910800
     38 O38         12.6680    -5.0380    -0.4050 o          1 KAL      -0.835800
     39 O39         12.3380    -4.0880     1.5790 o          1 KAL      -0.835800
     40 H1           6.8320     0.3800    -3.8450 ha         1 KAL       0.106000
     41 H2           5.5150     1.2720    -2.9120 ha         1 KAL       0.106000
     42 H3           7.7950     2.0900    -0.0850 hc         1 KAL       0.042200
     43 H4           6.3520     2.6490    -0.9020 hc         1 KAL       0.042200
     44 H5           5.1550     0.5670    -0.3120 hc         1 KAL       0.055200
     45 H6           6.5820    -0.0640     0.4740 hc         1 KAL       0.055200
     46 H7           6.4880     1.5930     2.2680 ha         1 KAL       0.123000
     47 H8           4.4280     2.5760     2.8200 ha         1 KAL       0.115000
     48 H9           3.4160     1.7740    -0.0130 ha         1 KAL       0.121000
     49 H10          2.1140     3.1500     2.3790 ha         1 KAL       0.116000
     50 H11          0.6630     3.8970     0.4740 hc         1 KAL       0.039200
     51 H12          1.1990     2.5370    -0.5020 hc         1 KAL       0.039200
     52 H13         -0.3850     2.3020     2.0960 hc         1 KAL       0.065700
     53 H14          0.9960     0.2850     1.5690 hc         1 KAL       0.039033
     54 H15         -0.7150    -0.0770     1.3920 hc         1 KAL       0.039033
     55 H16          0.2770     0.2110    -0.0370 hc         1 KAL       0.039033
     56 H17         -1.5910     3.4420     0.1790 hc         1 KAL       0.055700
     57 H18         -1.3410     2.0260    -0.7960 hc         1 KAL       0.055700
     58 H19         -3.7930     2.6740    -0.9000 hc         1 KAL       0.063200
     59 H20         -3.7450     0.9370    -0.8570 hc         1 KAL       0.063200
     60 H21         -5.3630     0.9330     1.0720 h1         1 KAL       0.112700
     61 H22         -5.4960     3.7050     0.6090 ho         1 KAL       0.388000
     62 H23         -6.2980     2.4580    -1.3970 h1         1 KAL       0.053700
     63 H24         -6.1040     0.7180    -1.2970 h1         1 KAL       0.053700
     64 H25         -8.2350     2.3470    -0.1530 hn         1 KAL       0.313500
     65 H26         -9.9340     1.4910     0.8210 hc         1 KAL       0.053700
     66 H27         -9.5840    -1.3310     1.9450 hc         1 KAL       0.048033
     67 H28         -9.2540     0.1790     2.7920 hc         1 KAL       0.048033
     68 H29        -10.9020    -0.2200     2.3270 hc         1 KAL       0.048033
     69 H30        -11.6420     0.0870    -0.0200 h1         1 KAL       0.066700
     70 H31         -9.5170     0.4260    -2.2000 hc         1 KAL       0.050033
     71 H32        -11.2640     0.3170    -2.4250 hc         1 KAL       0.050033
     72 H33        -10.5720     1.7090    -1.6010 hc         1 KAL       0.050033
     73 H34        -10.1020    -3.8310    -0.7330 hn         1 KAL       0.328500
     74 H35        -11.6970    -4.2500    -1.2180 hn         1 KAL       0.328500
     75 H36          9.0140     0.1870    -2.9680 hc         1 KAL       0.040700
     76 H37          9.4520     1.4140    -1.7900 hc         1 KAL       0.040700
     77 H38          8.8350    -0.1650     0.0560 hc         1 KAL       0.042700
     78 H39          8.5230    -2.5620    -0.4410 hc         1 KAL       0.033367
     79 H40          7.2860    -1.6450    -1.2950 hc         1 KAL       0.033367
     80 H41          8.6850    -2.2570    -2.1690 hc         1 KAL       0.033367
     81 H42         10.9460    -1.0420    -1.9550 hc         1 KAL       0.024700
     82 H43         11.1320     0.1830    -0.7060 hc         1 KAL       0.024700
     83 H44         11.1600    -0.4760     1.7080 hc         1 KAL       0.030033
     84 H45          9.7530    -1.5120     1.6670 hc         1 KAL       0.030033
     85 H46         11.3100    -2.1910     2.1490 hc         1 KAL       0.030033
     86 H47         11.8230    -2.9950    -1.4960 ha         1 KAL       0.090000
@<TRIPOS>BOND
     1     1     2 2   
     2     1    40 1   
     3     1    41 1   
     4     2     3 1   
     5     2    30 1   
     6     3     4 1   
     7     3    42 1   
     8     3    43 1   
     9     4     5 1   
    10     4    44 1   
    11     4    45 1   
    12     5     6 2   
    13     5    46 1   
    14     6     7 1   
    15     6    47 1   
    16     7     8 2   
    17     7    48 1   
    18     8     9 1   
    19     8    49 1   
    20     9    10 1   
    21     9    50 1   
    22     9    51 1   
    23    10    11 1   
    24    10    12 1   
    25    10    52 1   
    26    11    53 1   
    27    11    54 1   
    28    11    55 1   
    29    12    13 1   
    30    12    56 1   
    31    12    57 1   
    32    13    14 2   
    33    13    15 1   
    34    15    16 1   
    35    15    58 1   
    36    15    59 1   
    37    16    17 1   
    38    16    18 1   
    39    16    60 1   
    40    17    61 1   
    41    18    19 1   
    42    18    62 1   
    43    18    63 1   
    44    19    20 1   
    45    19    64 1   
    46    20    21 2   
    47    20    22 1   
    48    22    23 1   
    49    22    24 1   
    50    22    65 1   
    51    23    66 1   
    52    23    67 1   
    53    23    68 1   
    54    24    25 1   
    55    24    26 1   
    56    24    69 1   
    57    25    70 1   
    58    25    71 1   
    59    25    72 1   
    60    26    27 1   
    61    27    28 1   
    62    27    29 2   
    63    28    73 1   
    64    28    74 1   
    65    30    31 1   
    66    30    75 1   
    67    30    76 1   
    68    31    32 1   
    69    31    33 1   
    70    31    77 1   
    71    32    78 1   
    72    32    79 1   
    73    32    80 1   
    74    33    34 1   
    75    33    81 1   
    76    33    82 1   
    77    34    35 1   
    78    34    36 2   
    79    35    83 1   
    80    35    84 1   
    81    35    85 1   
    82    36    37 1   
    83    36    86 1   
    84    37    38 1   
    85    37    39 1   
@<TRIPOS>SUBSTRUCTURE
     1 KAL         1 TEMP              0 ****  ****    0 ROOT
