@<TRIPOS>MOLECULE
KAL
   86    85     1     0     0
SMALL
No Charge or Current Charge


@<TRIPOS>ATOM
      1 C01          5.2150     1.0670    -2.1690 c2         1 KAL      -0.341000
      2 C02          6.2830     1.2390    -1.3750 c2         1 KAL      -0.095400
      3 C03          6.1500     1.5780     0.1040 c3         1 KAL      -0.036200
      4 C04          5.8000     0.3550     0.9810 c3         1 KAL      -0.051200
      5 C05          5.6110     0.7220     2.4420 c2         1 KAL      -0.180200
      6 C06          4.5110     1.2610     3.0160 ce         1 KAL      -0.207000
      7 C07          3.2720     1.6010     2.3060 ce         1 KAL      -0.165000
      8 C08          2.1910     2.1250     2.9200 c2         1 KAL      -0.228200
      9 C09          0.8860     2.4960     2.2420 c3         1 KAL      -0.038200
     10 C10         -0.2390     1.4480     2.4530 c3         1 KAL      -0.044700
     11 C11          0.1320     0.0710     1.8440 c3         1 KAL      -0.090100
     12 C12         -1.5960     1.9810     1.9150 c3         1 KAL      -0.178400
     13 C13         -2.7770     1.0540     2.2500 c          1 KAL       0.576100
     14 O14         -3.2690     1.0290     3.3720 o          1 KAL      -0.500100
     15 C15         -3.3120     0.1550     1.1310 c3         1 KAL      -0.222400
     16 C16         -4.6130     0.7250     0.5360 c3         1 KAL       0.154300
     17 O17         -4.3280     1.9970    -0.0590 oh         1 KAL      -0.641000
     18 C18         -5.2360    -0.2180    -0.5270 c3         1 KAL       0.071000
     19 N19         -6.4410     0.3310    -1.1710 ns         1 KAL      -0.503900
     20 C20         -7.6590     0.5020    -0.5440 c          1 KAL       0.606100
     21 O21         -7.8130     0.2320     0.6390 o          1 KAL      -0.588100
     22 C22         -8.7750     1.0740    -1.4410 c3         1 KAL      -0.138700
     23 C23         -9.2870     2.4370    -0.9060 c3         1 KAL      -0.078100
     24 C24         -9.9190     0.0560    -1.6990 c3         1 KAL       0.203300
     25 C25         -9.4190    -1.3050    -2.2430 c3         1 KAL      -0.121100
     26 O26        -10.6120    -0.1730    -0.4570 os         1 KAL      -0.449100
     27 C27        -11.8730    -0.6860    -0.4870 c          1 KAL       0.641100
     28 N28        -12.3130    -0.8780     0.7630 nt         1 KAL      -0.594000
     29 O29        -12.5340    -0.9350    -1.4780 o          1 KAL      -0.556000
     30 C30          7.7160     1.1720    -1.8960 c3         1 KAL      -0.045200
     31 C31          8.5390    -0.0470    -1.3950 c3         1 KAL      -0.053700
     32 C32          7.8790    -1.3910    -1.7930 c3         1 KAL      -0.083100
     33 C33         10.0120     0.0410    -1.8840 c3         1 KAL      -0.032200
     34 C34         10.9230    -1.0420    -1.3140 c2         1 KAL      -0.167400
     35 C35         11.2820    -0.8040     0.1480 c3         1 KAL      -0.038900
     36 C36         11.3370    -2.0980    -2.0690 ce         1 KAL      -0.237200
     37 C37         12.2130    -3.2550    -1.6770 c          1 KAL       0.700200
     38 O38         12.4490    -4.0830    -2.5420 o          1 KAL      -0.730500
     39 O39         12.6530    -3.3430    -0.5410 o          1 KAL      -0.730500
     40 H1           5.3200     0.8440    -3.2310 ha         1 KAL       0.156000
     41 H2           4.1980     1.1410    -1.7830 ha         1 KAL       0.156000
     42 H3           7.0650     2.0510     0.4850 hc         1 KAL       0.042200
     43 H4           5.3580     2.3260     0.2280 hc         1 KAL       0.042200
     44 H5           4.8960    -0.1260     0.5890 hc         1 KAL       0.055200
     45 H6           6.5960    -0.3920     0.8940 hc         1 KAL       0.055200
     46 H7           6.4850     0.5070     3.0600 ha         1 KAL       0.173000
     47 H8           4.5230     1.4690     4.0880 ha         1 KAL       0.165000
     48 H9           3.2400     1.4130     1.2310 ha         1 KAL       0.171000
     49 H10          2.2050     2.3170     3.9950 ha         1 KAL       0.166000
     50 H11          0.5500     3.4640     2.6330 hc         1 KAL       0.039200
     51 H12          1.0450     2.6430     1.1660 hc         1 KAL       0.039200
     52 H13         -0.3490     1.3070     3.5370 hc         1 KAL       0.065700
     53 H14          1.0740    -0.3030     2.2610 hc         1 KAL       0.039033
     54 H15         -0.6370    -0.6790     2.0620 hc         1 KAL       0.039033
     55 H16          0.2450     0.1430     0.7560 hc         1 KAL       0.039033
     56 H17         -1.7940     2.9580     2.3710 hc         1 KAL       0.055700
     57 H18         -1.5130     2.0940     0.8280 hc         1 KAL       0.055700
     58 H19         -2.5710     0.0720     0.3270 hc         1 KAL       0.063200
     59 H20         -3.5260    -0.8360     1.5490 hc         1 KAL       0.063200
     60 H21         -5.3440     0.8420     1.3520 h1         1 KAL       0.112700
     61 H22         -5.1120     2.2360    -0.5990 ho         1 KAL       0.427000
     62 H23         -4.4910    -0.4280    -1.3070 h1         1 KAL       0.053700
     63 H24         -5.4970    -1.1740    -0.0540 h1         1 KAL       0.053700
     64 H25         -6.3990     0.5600    -2.1580 hn         1 KAL       0.313500
     65 H26         -8.3320     1.2760    -2.4240 hc         1 KAL       0.053700
     66 H27         -9.7350     2.3280     0.0900 hc         1 KAL       0.048033
     67 H28         -8.4610     3.1550    -0.8300 hc         1 KAL       0.048033
     68 H29        -10.0430     2.8590    -1.5780 hc         1 KAL       0.048033
     69 H30        -10.5970     0.5040    -2.4390 h1         1 KAL       0.066700
     70 H31         -8.8320    -1.8430    -1.4900 hc         1 KAL       0.050033
     71 H32        -10.2590    -1.9420    -2.5400 hc         1 KAL       0.050033
     72 H33         -8.7890    -1.1540    -3.1280 hc         1 KAL       0.050033
     73 H34        -11.7110    -0.6470     1.5370 hn         1 KAL       0.328500
     74 H35        -13.2370    -1.2520     0.9140 hn         1 KAL       0.328500
     75 H36          7.7090     1.1490    -2.9930 hc         1 KAL       0.040700
     76 H37          8.2410     2.0970    -1.6260 hc         1 KAL       0.040700
     77 H38          8.5610     0.0000    -0.3000 hc         1 KAL       0.042700
     78 H39          8.4310    -2.2400    -1.3720 hc         1 KAL       0.033367
     79 H40          6.8500    -1.4520    -1.4200 hc         1 KAL       0.033367
     80 H41          7.8540    -1.5050    -2.8830 hc         1 KAL       0.033367
     81 H42         10.0170    -0.0040    -2.9810 hc         1 KAL       0.024700
     82 H43         10.4180     1.0290    -1.6340 hc         1 KAL       0.024700
     83 H44         10.9100     0.1580     0.5210 hc         1 KAL       0.030033
     84 H45         10.8560    -1.5850     0.7890 hc         1 KAL       0.030033
     85 H46         12.3690    -0.7990     0.2940 hc         1 KAL       0.030033
     86 H47         11.0070    -2.1540    -3.1030 ha         1 KAL       0.140000
@<TRIPOS>BOND
     1     1     2 2   
     2     1    40 1   
     3     1    41 1   
     4     2     3 1   
     5     2    30 1   
     6     3     4 1   
     7     3    42 1   
     8     3    43 1   
     9     4     5 1   
    10     4    44 1   
    11     4    45 1   
    12     5     6 2   
    13     5    46 1   
    14     6     7 1   
    15     6    47 1   
    16     7     8 2   
    17     7    48 1   
    18     8     9 1   
    19     8    49 1   
    20     9    10 1   
    21     9    50 1   
    22     9    51 1   
    23    10    11 1   
    24    10    12 1   
    25    10    52 1   
    26    11    53 1   
    27    11    54 1   
    28    11    55 1   
    29    12    13 1   
    30    12    56 1   
    31    12    57 1   
    32    13    14 2   
    33    13    15 1   
    34    15    16 1   
    35    15    58 1   
    36    15    59 1   
    37    16    17 1   
    38    16    18 1   
    39    16    60 1   
    40    17    61 1   
    41    18    19 1   
    42    18    62 1   
    43    18    63 1   
    44    19    20 1   
    45    19    64 1   
    46    20    21 2   
    47    20    22 1   
    48    22    23 1   
    49    22    24 1   
    50    22    65 1   
    51    23    66 1   
    52    23    67 1   
    53    23    68 1   
    54    24    25 1   
    55    24    26 1   
    56    24    69 1   
    57    25    70 1   
    58    25    71 1   
    59    25    72 1   
    60    26    27 1   
    61    27    28 1   
    62    27    29 2   
    63    28    73 1   
    64    28    74 1   
    65    30    31 1   
    66    30    75 1   
    67    30    76 1   
    68    31    32 1   
    69    31    33 1   
    70    31    77 1   
    71    32    78 1   
    72    32    79 1   
    73    32    80 1   
    74    33    34 1   
    75    33    81 1   
    76    33    82 1   
    77    34    35 1   
    78    34    36 2   
    79    35    83 1   
    80    35    84 1   
    81    35    85 1   
    82    36    37 1   
    83    36    86 1   
    84    37    38 1   
    85    37    39 1   
@<TRIPOS>SUBSTRUCTURE
     1 KAL         1 TEMP              0 ****  ****    0 ROOT
