@<TRIPOS>MOLECULE
KAN
   69    71     1     0     0
SMALL
bcc


@<TRIPOS>ATOM
      1 C1          -0.2470     0.9260    -3.0340 c6         1 KAN       0.339900
      2 C2          -1.6780     0.4670    -3.3290 c6         1 KAN       0.088100
      3 C3          -1.6700    -0.7940    -4.1850 c6         1 KAN       0.098100
      4 C4          -0.8460    -0.5540    -5.4430 c6         1 KAN       0.128100
      5 C5           0.5490    -0.0790    -5.0470 c6         1 KAN       0.145100
      6 C6           1.4220     0.2900    -6.2300 c3         1 KAN       0.161800
      7 C7           2.6090    -0.2550     1.3430 c6         1 KAN       0.128500
      8 C8           1.2330     0.4080     1.4080 c6         1 KAN       0.175100
      9 C9           0.4170     0.0640     0.1700 c6         1 KAN       0.135100
     10 C10          1.1590     0.4460    -1.1140 c6         1 KAN       0.123100
     11 C11          2.5470    -0.1770    -1.1940 c6         1 KAN       0.169500
     12 C12          3.3280     0.1710     0.0680 c6         1 KAN      -0.113400
     13 C13          0.4050     0.7880     3.6430 c6         1 KAN       0.325900
     14 C14          0.6890    -0.0260     4.9040 c6         1 KAN       0.097100
     15 C15         -0.3690    -1.1260     5.0660 c6         1 KAN       0.139500
     16 C16         -1.7600    -0.4950     5.0360 c6         1 KAN       0.129100
     17 C17         -1.9330     0.4270     3.8180 c6         1 KAN       0.118100
     18 C18         -3.2100     1.2340     3.9340 c3         1 KAN       0.145400
     19 N1           2.7630     0.6260    -5.7820 n8         1 KAN      -0.897800
     20 N2           3.2650     0.3390    -2.3470 n8         1 KAN      -0.901800
     21 N4          -0.2030    -1.9160     6.2750 n8         1 KAN      -0.864800
     22 O5           0.4500     1.0850    -4.2340 os         1 KAN      -0.424600
     23 O6          -2.3810     0.2260    -2.1240 oh         1 KAN      -0.599800
     24 O7          -2.9710    -1.1550    -4.5870 oh         1 KAN      -0.609800
     25 O8          -0.7020    -1.7300    -6.2010 oh         1 KAN      -0.592800
     26 O9           0.3610    -0.0050    -2.2000 os         1 KAN      -0.446600
     27 O10         -0.8130     0.7260     0.2610 oh         1 KAN      -0.591800
     28 O11          0.5430    -0.0560     2.5430 os         1 KAN      -0.424600
     29 O12         -0.8660     1.3550     3.7150 os         1 KAN      -0.402600
     30 O13          1.9850    -0.5610     4.9250 oh         1 KAN      -0.640800
     31 O14         -2.7300    -1.5190     5.0050 oh         1 KAN      -0.573800
     32 O15         -3.4120     1.9760     2.7560 oh         1 KAN      -0.575800
     33 H1          -0.2620     1.9190    -2.5670 h2         1 KAN       0.079700
     34 H2          -2.1630     1.2670    -3.8990 h1         1 KAN       0.059700
     35 H3          -1.2000    -1.6100    -3.6170 h1         1 KAN       0.072700
     36 H4          -1.3340     0.2390    -6.0330 h1         1 KAN       0.047700
     37 H5           1.0480    -0.8880    -4.4950 h1         1 KAN       0.073700
     38 H61          0.9270     1.0870    -6.8040 h1         1 KAN       0.044200
     39 H62          1.4870    -0.5760    -6.8890 h1         1 KAN       0.044200
     40 H7           2.4530    -1.3390     1.3170 h1         1 KAN       0.079700
     41 H8           1.3650     1.5000     1.4560 h1         1 KAN       0.050700
     42 H9           0.2800    -1.0310     0.1590 h1         1 KAN       0.052700
     43 H10          1.2710     1.5390    -1.1560 h1         1 KAN       0.063700
     44 H11          2.4190    -1.2720    -1.2240 h1         1 KAN       0.031700
     45 H121         4.3110    -0.3070     0.0280 hc         1 KAN       0.051700
     46 H122         3.5050     1.2530     0.0910 hc         1 KAN       0.051700
     47 H13          1.0990     1.6370     3.5760 h2         1 KAN       0.068700
     48 H14          0.5740     0.6650     5.7550 h1         1 KAN       0.048700
     49 H15         -0.2830    -1.8110     4.2140 h1         1 KAN       0.093700
     50 H16         -1.8670     0.1170     5.9460 h1         1 KAN       0.026700
     51 H17         -1.9830    -0.1920     2.9130 h1         1 KAN       0.086700
     52 H181        -4.0400     0.5400     4.1130 h1         1 KAN       0.019200
     53 H182        -3.1380     1.8830     4.8190 h1         1 KAN       0.019200
     54 HN11         3.3640     0.7560    -6.5850 hn         1 KAN       0.347300
     55 HN12         2.7510     1.5150    -5.2980 hn         1 KAN       0.347300
     56 HN21         4.1800    -0.0930    -2.3850 hn         1 KAN       0.357300
     57 HN22         2.8090     0.0790    -3.2130 hn         1 KAN       0.357300
     58 HN31         4.1950    -0.5290     2.5900 hn         1 KAN       0.350800
     59 HN32         3.6630     0.9990     2.5670 hn         1 KAN       0.350800
     60 HN41         0.7190    -2.3350     6.2630 hn         1 KAN       0.338800
     61 HN42        -0.2090    -1.3020     7.0830 hn         1 KAN       0.338800
     62 HO6         -3.1090     0.8500    -2.0540 ho         1 KAN       0.419000
     63 HO7         -3.4410    -1.5040    -3.8240 ho         1 KAN       0.422000
     64 HO8         -1.5810    -2.0740    -6.3880 ho         1 KAN       0.424000
     65 HO1         -1.3640     0.4560    -0.4900 ho         1 KAN       0.431000
     66 HO3          2.4460    -0.3760     4.0690 ho         1 KAN       0.458000
     67 HO4         -3.4800    -1.2560     5.5440 ho         1 KAN       0.399000
     68 HO5         -4.2510     2.4380     2.8420 ho         1 KAN       0.396000
     69 N3           3.3520     0.0330     2.5640 n8         1 KAN      -0.893800
@<TRIPOS>BOND
     1     1     2 1   
     2     1    22 1   
     3     1    26 1   
     4     1    33 1   
     5     2     3 1   
     6     2    23 1   
     7     2    34 1   
     8     3     4 1   
     9     3    24 1   
    10     3    35 1   
    11     4     5 1   
    12     4    25 1   
    13     4    36 1   
    14     5     6 1   
    15     5    22 1   
    16     5    37 1   
    17     6    19 1   
    18     6    38 1   
    19     6    39 1   
    20     7     8 1   
    21     7    12 1   
    22     7    40 1   
    23     7    69 1   
    24     8     9 1   
    25     8    28 1   
    26     8    41 1   
    27     9    10 1   
    28     9    27 1   
    29     9    42 1   
    30    10    11 1   
    31    10    26 1   
    32    10    43 1   
    33    11    12 1   
    34    11    20 1   
    35    11    44 1   
    36    12    45 1   
    37    12    46 1   
    38    13    14 1   
    39    13    28 1   
    40    13    29 1   
    41    13    47 1   
    42    14    15 1   
    43    14    30 1   
    44    14    48 1   
    45    15    16 1   
    46    15    21 1   
    47    15    49 1   
    48    16    17 1   
    49    16    31 1   
    50    16    50 1   
    51    17    18 1   
    52    17    29 1   
    53    17    51 1   
    54    18    32 1   
    55    18    52 1   
    56    18    53 1   
    57    19    54 1   
    58    19    55 1   
    59    20    56 1   
    60    20    57 1   
    61    21    60 1   
    62    21    61 1   
    63    23    62 1   
    64    24    63 1   
    65    25    64 1   
    66    27    65 1   
    67    30    66 1   
    68    31    67 1   
    69    32    68 1   
    70    58    69 1   
    71    59    69 1   
@<TRIPOS>SUBSTRUCTURE
     1 KAN         1 TEMP              0 ****  ****    0 ROOT
