@<TRIPOS>MOLECULE
KAN
   69    71     1     0     0
SMALL
No Charge or Current Charge


@<TRIPOS>ATOM
      1 C1          -0.2480     0.6020    -3.0590 c6         1 KAN       0.386300
      2 C2          -1.6140    -0.1200    -3.3290 c6         1 KAN       0.111300
      3 C3          -1.4280    -1.1920    -4.4370 c6         1 KAN       0.121300
      4 C4          -0.8170    -0.5490    -5.7170 c6         1 KAN       0.151300
      5 C5           0.5280     0.1560    -5.3350 c6         1 KAN       0.168300
      6 C6           1.1800     0.9110    -6.5420 c3         1 KAN       0.161800
      7 C7           2.4640    -0.4010     1.5360 c6         1 KAN       0.128500
      8 C8           1.0530     0.2870     1.3760 c6         1 KAN       0.198300
      9 C9           0.3740    -0.1680     0.0370 c6         1 KAN       0.158300
     10 C10          1.3010     0.1420    -1.1930 c6         1 KAN       0.146300
     11 C11          2.6890    -0.5500    -1.0030 c6         1 KAN       0.169500
     12 C12          3.3670    -0.1100     0.3150 c6         1 KAN      -0.113400
     13 C13          0.3750     0.7860     3.6910 c6         1 KAN       0.372300
     14 C14          0.6480    -0.1140     4.9540 c6         1 KAN       0.120300
     15 C15         -0.6530    -0.9020     5.2970 c6         1 KAN       0.139500
     16 C16         -1.8440     0.0770     5.4780 c6         1 KAN       0.152300
     17 C17         -2.0200     0.9280     4.1840 c6         1 KAN       0.141300
     18 C18         -3.1690     1.9810     4.3280 c3         1 KAN       0.168600
     19 N1           2.4420     1.6280    -6.2170 n8         1 KAN      -1.008200
     20 N2           3.5860    -0.2740    -2.1480 n8         1 KAN      -1.012200
     21 N4          -0.5100    -1.7890     6.4950 n8         1 KAN      -0.975200
     22 O5           0.3010     1.1370    -4.2820 os         1 KAN      -0.471000
     23 O6          -2.1750    -0.7460    -2.1510 oh         1 KAN      -0.722000
     24 O7          -2.6860    -1.8280    -4.7350 oh         1 KAN      -0.672000
     25 O8          -0.6360    -1.5660    -6.7280 oh         1 KAN      -0.715000
     26 O9           0.7220    -0.2870    -2.4580 os         1 KAN      -0.493000
     27 O10         -0.9380     0.4200    -0.1110 oh         1 KAN      -0.714000
     28 O11          0.1800    -0.0090     2.5010 os         1 KAN      -0.471000
     29 O12         -0.7800     1.6340     3.8920 os         1 KAN      -0.449000
     30 O13          1.7640    -1.0240     4.7680 oh         1 KAN      -0.763000
     31 O14         -3.0030    -0.6950     5.8200 oh         1 KAN      -0.696000
     32 O15         -3.3120     2.8390     3.1800 oh         1 KAN      -0.698000
     33 H1          -0.4440     1.4460    -2.3800 h2         1 KAN       0.079700
     34 H2          -2.3150     0.6400    -3.7070 h1         1 KAN       0.059700
     35 H3          -0.7110    -1.9420    -4.0670 h1         1 KAN       0.072700
     36 H4          -1.5150     0.2200    -6.0810 h1         1 KAN       0.047700
     37 H5           1.2440    -0.5980    -4.9760 h1         1 KAN       0.073700
     38 H61          0.4530     1.6450    -6.9180 h1         1 KAN       0.044200
     39 H62          1.3860     0.1950    -7.3490 h1         1 KAN       0.044200
     40 H7           2.2990    -1.4900     1.5910 h1         1 KAN       0.079700
     41 H8           1.1930     1.3770     1.3220 h1         1 KAN       0.050700
     42 H9           0.2650    -1.2620     0.0890 h1         1 KAN       0.052700
     43 H10          1.4760     1.2280    -1.2380 h1         1 KAN       0.063700
     44 H11          2.5240    -1.6380    -0.9790 h1         1 KAN       0.031700
     45 H121         4.3240    -0.6370     0.4270 hc         1 KAN       0.051700
     46 H122         3.6010     0.9630     0.2700 hc         1 KAN       0.051700
     47 H13          1.2470     1.4430     3.5550 h2         1 KAN       0.068700
     48 H14          0.8710     0.5640     5.7910 h1         1 KAN       0.048700
     49 H15         -0.8810    -1.5540     4.4370 h1         1 KAN       0.093700
     50 H16         -1.6080     0.7590     6.3080 h1         1 KAN       0.026700
     51 H17         -2.2660     0.2680     3.3400 h1         1 KAN       0.086700
     52 H181        -4.1100     1.4430     4.5040 h1         1 KAN       0.019200
     53 H182        -2.9690     2.5860     5.2220 h1         1 KAN       0.019200
     54 HN11         2.6730     2.2680    -6.9860 hn         1 KAN       0.402500
     55 HN12         2.2510     2.2550    -5.4260 hn         1 KAN       0.402500
     56 HN21         4.1900    -1.0900    -2.2980 hn         1 KAN       0.412500
     57 HN22         2.9940    -0.2590    -2.9880 hn         1 KAN       0.412500
     58 HN31         4.1210    -0.4830     2.7570 hn         1 KAN       0.406000
     59 HN32         3.4860     0.9810     2.6770 hn         1 KAN       0.406000
     60 HN41         0.3160    -2.3770     6.3250 hn         1 KAN       0.394000
     61 HN42        -0.2060    -1.2160     7.2910 hn         1 KAN       0.394000
     62 HO6         -2.8110    -1.4130    -2.5130 ho         1 KAN       0.518000
     63 HO7         -2.5380    -2.2990    -5.5880 ho         1 KAN       0.461000
     64 HO8         -0.7170    -1.1290    -7.6090 ho         1 KAN       0.523000
     65 HO1         -1.3890    -0.0770    -0.8570 ho         1 KAN       0.530000
     66 HO3          2.2920    -0.6590     3.9860 ho         1 KAN       0.557000
     67 HO4         -2.6120    -1.4670     6.3020 ho         1 KAN       0.498000
     68 HO5         -4.0130     3.4950     3.3980 ho         1 KAN       0.495000
     69 N3           3.2060    -0.0060     2.7670 n8         1 KAN      -1.004200
@<TRIPOS>BOND
     1     1     2 1   
     2     1    22 1   
     3     1    26 1   
     4     1    33 1   
     5     2     3 1   
     6     2    23 1   
     7     2    34 1   
     8     3     4 1   
     9     3    24 1   
    10     3    35 1   
    11     4     5 1   
    12     4    25 1   
    13     4    36 1   
    14     5     6 1   
    15     5    22 1   
    16     5    37 1   
    17     6    19 1   
    18     6    38 1   
    19     6    39 1   
    20     7     8 1   
    21     7    12 1   
    22     7    40 1   
    23     7    69 1   
    24     8     9 1   
    25     8    28 1   
    26     8    41 1   
    27     9    10 1   
    28     9    27 1   
    29     9    42 1   
    30    10    11 1   
    31    10    26 1   
    32    10    43 1   
    33    11    12 1   
    34    11    20 1   
    35    11    44 1   
    36    12    45 1   
    37    12    46 1   
    38    13    14 1   
    39    13    28 1   
    40    13    29 1   
    41    13    47 1   
    42    14    15 1   
    43    14    30 1   
    44    14    48 1   
    45    15    16 1   
    46    15    21 1   
    47    15    49 1   
    48    16    17 1   
    49    16    31 1   
    50    16    50 1   
    51    17    18 1   
    52    17    29 1   
    53    17    51 1   
    54    18    32 1   
    55    18    52 1   
    56    18    53 1   
    57    19    54 1   
    58    19    55 1   
    59    20    56 1   
    60    20    57 1   
    61    21    60 1   
    62    21    61 1   
    63    23    62 1   
    64    24    63 1   
    65    25    64 1   
    66    27    65 1   
    67    30    66 1   
    68    31    67 1   
    69    32    68 1   
    70    58    69 1   
    71    59    69 1   
@<TRIPOS>SUBSTRUCTURE
     1 KAN         1 TEMP              0 ****  ****    0 ROOT
