@<TRIPOS>MOLECULE
KAO
   59    62     1     0     0
SMALL
No Charge or Current Charge


@<TRIPOS>ATOM
      1 N1          -3.6710     0.6070     0.0730 na         1 KAO       0.186000
      2 C2          -2.3470     1.0200    -0.0070 cc         1 KAO       0.015600
      3 C3          -2.4720     2.3760    -0.0950 cd         1 KAO      -0.216000
      4 C4          -3.8580     2.6880    -0.0670 cd         1 KAO       0.277300
      5 N5          -4.6160     1.6040     0.0310 nc         1 KAO      -0.505800
      6 N6          -1.1930     0.2370     0.0220 ns         1 KAO      -0.423100
      7 C7           0.1280     0.6310    -0.0650 c          1 KAO       0.674100
      8 C8          -4.4520     4.0950    -0.1410 c3         1 KAO      -0.072300
      9 C9          -4.0120     4.7600    -1.4720 c3         1 KAO      -0.080100
     10 C10         -6.0080     4.0870    -0.0840 c3         1 KAO      -0.080100
     11 C11         -3.9200     4.9330     1.0520 c3         1 KAO      -0.080100
     12 C12         -4.0670    -0.7320     0.1310 ca         1 KAO       0.005800
     13 C13         -3.6870    -1.6330    -0.8840 ca         1 KAO      -0.105500
     14 C14         -4.0800    -2.9810    -0.8190 ca         1 KAO      -0.105000
     15 C15         -4.8600    -3.4430     0.2580 ca         1 KAO      -0.071300
     16 C16         -5.2410    -2.5440     1.2710 ca         1 KAO      -0.105000
     17 C17         -4.8490    -1.1950     1.2070 ca         1 KAO      -0.105500
     18 C18         -5.2820    -4.9030     0.3290 c3         1 KAO      -0.048800
     19 O19          0.4740     1.7970    -0.1940 o          1 KAO      -0.589100
     20 N20          0.9970    -0.4480     0.0100 ns         1 KAO      -0.159000
     21 C21          2.4160    -0.5400    -0.0400 ca         1 KAO       0.001000
     22 C22          2.9900    -1.8160     0.1030 ca         1 KAO      -0.153500
     23 C23          4.3840    -1.9870     0.0640 ca         1 KAO      -0.068500
     24 C24          5.2520    -0.8840    -0.1190 cp         1 KAO      -0.062000
     25 C25          4.6630     0.3970    -0.2640 ca         1 KAO      -0.068500
     26 C26          3.2680     0.5680    -0.2250 ca         1 KAO      -0.153500
     27 C27          6.7400    -1.0650    -0.1620 cp         1 KAO      -0.077000
     28 C28          7.6240    -0.0660     0.3150 ca         1 KAO      -0.067000
     29 C29          9.0090    -0.2890     0.2500 ca         1 KAO      -0.163000
     30 C30          9.4870    -1.4960    -0.2860 ca         1 KAO       0.334900
     31 N31          8.6670    -2.4660    -0.7490 nb         1 KAO      -0.665000
     32 C32          7.3310    -2.2480    -0.6840 ca         1 KAO       0.341900
     33 H1          -1.6690     3.0990    -0.1690 ha         1 KAO       0.163000
     34 H2          -1.3190    -0.7620     0.1260 hn         1 KAO       0.326500
     35 H3          -4.3580     4.1740    -2.3320 hc         1 KAO       0.036922
     36 H4          -4.4250     5.7720    -1.5630 hc         1 KAO       0.036922
     37 H5          -2.9200     4.8370    -1.5350 hc         1 KAO       0.036922
     38 H6          -6.3660     3.6370     0.8510 hc         1 KAO       0.036922
     39 H7          -6.4080     5.1060    -0.1390 hc         1 KAO       0.036922
     40 H8          -6.4310     3.5170    -0.9210 hc         1 KAO       0.036922
     41 H9          -2.8270     5.0120     1.0240 hc         1 KAO       0.036922
     42 H10         -4.3310     5.9490     1.0340 hc         1 KAO       0.036922
     43 H11         -4.2010     4.4700     2.0060 hc         1 KAO       0.036922
     44 H12         -3.0930    -1.2870    -1.7280 ha         1 KAO       0.133000
     45 H13         -3.7800    -3.6670    -1.6090 ha         1 KAO       0.117500
     46 H14         -5.8420    -2.8890     2.1100 ha         1 KAO       0.117500
     47 H15         -5.1490    -0.5080     1.9960 ha         1 KAO       0.133000
     48 H16         -4.5340    -5.4990     0.8650 hc         1 KAO       0.045700
     49 H17         -6.2390    -5.0180     0.8510 hc         1 KAO       0.045700
     50 H18         -5.4000    -5.3340    -0.6720 hc         1 KAO       0.045700
     51 H19          0.5410    -1.3430     0.1210 hn         1 KAO       0.149000
     52 H20          2.3520    -2.6860     0.2490 ha         1 KAO       0.130500
     53 H21          4.7910    -2.9870     0.1910 ha         1 KAO       0.117500
     54 H22          5.2920     1.2690    -0.4230 ha         1 KAO       0.117500
     55 H23          2.8740     1.5720    -0.3470 ha         1 KAO       0.130500
     56 H24          7.2460     0.8600     0.7420 ha         1 KAO       0.121000
     57 H25          9.7090     0.4580     0.6120 ha         1 KAO       0.124000
     58 H26         10.5560    -1.6920    -0.3470 h4         1 KAO       0.019100
     59 H27          6.7070    -3.0490    -1.0770 h4         1 KAO       0.019100
@<TRIPOS>BOND
     1     1     2 1   
     2     1     5 1   
     3     1    12 1   
     4     2     3 2   
     5     2     6 1   
     6     3     4 1   
     7     3    33 1   
     8     4     5 2   
     9     4     8 1   
    10     6     7 1   
    11     6    34 1   
    12     7    19 2   
    13     7    20 1   
    14     8     9 1   
    15     8    10 1   
    16     8    11 1   
    17     9    35 1   
    18     9    36 1   
    19     9    37 1   
    20    10    38 1   
    21    10    39 1   
    22    10    40 1   
    23    11    41 1   
    24    11    42 1   
    25    11    43 1   
    26    12    13 ar  
    27    12    17 ar  
    28    13    14 ar  
    29    13    44 1   
    30    14    15 ar  
    31    14    45 1   
    32    15    16 ar  
    33    15    18 1   
    34    16    17 ar  
    35    16    46 1   
    36    17    47 1   
    37    18    48 1   
    38    18    49 1   
    39    18    50 1   
    40    20    21 1   
    41    20    51 1   
    42    21    22 ar  
    43    21    26 ar  
    44    22    23 ar  
    45    22    52 1   
    46    23    24 ar  
    47    23    53 1   
    48    24    25 ar  
    49    24    27 1   
    50    25    26 ar  
    51    25    54 1   
    52    26    55 1   
    53    27    28 ar  
    54    27    32 ar  
    55    28    29 ar  
    56    28    56 1   
    57    29    30 ar  
    58    29    57 1   
    59    30    31 ar  
    60    30    58 1   
    61    31    32 ar  
    62    32    59 1   
@<TRIPOS>SUBSTRUCTURE
     1 KAO         1 TEMP              0 ****  ****    0 ROOT
