@<TRIPOS>MOLECULE
KAO
   59    62     1     0     0
SMALL
abcg2


@<TRIPOS>ATOM
      1 N1          -3.4980     0.6000     0.1120 na         1 KAO       0.186000
      2 C2          -2.2450     1.0850     0.3110 cc         1 KAO       0.015600
      3 C3          -2.3390     2.4540     0.2660 cd         1 KAO      -0.216000
      4 C4          -3.7110     2.7110     0.0480 cd         1 KAO       0.277300
      5 N5          -4.3950     1.5900    -0.0280 nc         1 KAO      -0.505800
      6 N6          -1.1870     0.2320     0.5580 ns         1 KAO      -0.423100
      7 C7           0.1020     0.5010     0.1640 c          1 KAO       0.674100
      8 C8          -4.3610     4.0610    -0.0990 c3         1 KAO      -0.072300
      9 C9          -3.7610     4.7630    -1.3240 c3         1 KAO      -0.080100
     10 C10         -5.8720     3.9280    -0.2830 c3         1 KAO      -0.080100
     11 C11         -4.0760     4.8960     1.1550 c3         1 KAO      -0.080100
     12 C12         -3.9210    -0.7460     0.0800 ca         1 KAO       0.005800
     13 C13         -3.2490    -1.6770    -0.7040 ca         1 KAO      -0.105500
     14 C14         -3.6810    -2.9940    -0.7270 ca         1 KAO      -0.105000
     15 C15         -4.7940    -3.4050     0.0030 ca         1 KAO      -0.071300
     16 C16         -5.4660    -2.4500     0.7630 ca         1 KAO      -0.105000
     17 C17         -5.0350    -1.1340     0.8140 ca         1 KAO      -0.105500
     18 C18         -5.2400    -4.8370    -0.0160 c3         1 KAO      -0.048800
     19 O19          0.4010     1.5050    -0.4530 o          1 KAO      -0.589100
     20 N20          0.9790    -0.4760     0.5380 ns         1 KAO      -0.159000
     21 C21          2.3510    -0.5430     0.3000 ca         1 KAO       0.001000
     22 C22          3.0080    -1.6910     0.7510 ca         1 KAO      -0.153500
     23 C23          4.3670    -1.8520     0.5660 ca         1 KAO      -0.068500
     24 C24          5.1290    -0.8750    -0.0760 cp         1 KAO      -0.062000
     25 C25          4.4650     0.2670    -0.5190 ca         1 KAO      -0.068500
     26 C26          3.1020     0.4440    -0.3420 ca         1 KAO      -0.153500
     27 C27          6.5770    -1.0450    -0.2810 cp         1 KAO      -0.077000
     28 C28          7.4660     0.0260    -0.2050 ca         1 KAO      -0.067000
     29 C29          8.8170    -0.1960    -0.4070 ca         1 KAO      -0.163000
     30 C30          9.2460    -1.4870    -0.6740 ca         1 KAO       0.334900
     31 N31          8.4160    -2.5200    -0.7560 nb         1 KAO      -0.665000
     32 C32          7.1230    -2.2970    -0.5690 ca         1 KAO       0.341900
     33 H1          -1.5420     3.1670     0.3880 ha         1 KAO       0.163000
     34 H2          -1.3890    -0.6180     1.0650 hn         1 KAO       0.326500
     35 H3          -3.9470     4.1920    -2.2350 hc         1 KAO       0.036922
     36 H4          -4.2020     5.7530    -1.4520 hc         1 KAO       0.036922
     37 H5          -2.6820     4.8940    -1.2250 hc         1 KAO       0.036922
     38 H6          -6.3410     3.4360     0.5710 hc         1 KAO       0.036922
     39 H7          -6.3180     4.9180    -0.3850 hc         1 KAO       0.036922
     40 H8          -6.1230     3.3560    -1.1770 hc         1 KAO       0.036922
     41 H9          -3.0050     5.0220     1.3220 hc         1 KAO       0.036922
     42 H10         -4.5140     5.8910     1.0540 hc         1 KAO       0.036922
     43 H11         -4.5020     4.4300     2.0450 hc         1 KAO       0.036922
     44 H12         -2.4030    -1.3790    -1.3090 ha         1 KAO       0.133000
     45 H13         -3.1500    -3.7080    -1.3450 ha         1 KAO       0.117500
     46 H14         -6.3410    -2.7380     1.3330 ha         1 KAO       0.117500
     47 H15         -5.5640    -0.4110     1.4200 ha         1 KAO       0.133000
     48 H16         -4.7070    -5.4200     0.7380 hc         1 KAO       0.045700
     49 H17         -6.3050    -4.9280     0.1980 hc         1 KAO       0.045700
     50 H18         -5.0460    -5.3030    -0.9820 hc         1 KAO       0.045700
     51 H19          0.6050    -1.2670     1.0410 hn         1 KAO       0.149000
     52 H20          2.4490    -2.4670     1.2600 ha         1 KAO       0.130500
     53 H21          4.8400    -2.7480     0.9490 ha         1 KAO       0.117500
     54 H22          5.0140     1.0420    -1.0380 ha         1 KAO       0.117500
     55 H23          2.6400     1.3420    -0.7150 ha         1 KAO       0.130500
     56 H24          7.1090     1.0220     0.0280 ha         1 KAO       0.121000
     57 H25          9.5300     0.6150    -0.3490 ha         1 KAO       0.124000
     58 H26         10.2990    -1.6940    -0.8280 h4         1 KAO       0.019100
     59 H27          6.4710    -3.1590    -0.6660 h4         1 KAO       0.019100
@<TRIPOS>BOND
     1     1     2 1   
     2     1     5 1   
     3     1    12 1   
     4     2     3 2   
     5     2     6 1   
     6     3     4 1   
     7     3    33 1   
     8     4     5 2   
     9     4     8 1   
    10     6     7 1   
    11     6    34 1   
    12     7    19 2   
    13     7    20 1   
    14     8     9 1   
    15     8    10 1   
    16     8    11 1   
    17     9    35 1   
    18     9    36 1   
    19     9    37 1   
    20    10    38 1   
    21    10    39 1   
    22    10    40 1   
    23    11    41 1   
    24    11    42 1   
    25    11    43 1   
    26    12    13 ar  
    27    12    17 ar  
    28    13    14 ar  
    29    13    44 1   
    30    14    15 ar  
    31    14    45 1   
    32    15    16 ar  
    33    15    18 1   
    34    16    17 ar  
    35    16    46 1   
    36    17    47 1   
    37    18    48 1   
    38    18    49 1   
    39    18    50 1   
    40    20    21 1   
    41    20    51 1   
    42    21    22 ar  
    43    21    26 ar  
    44    22    23 ar  
    45    22    52 1   
    46    23    24 ar  
    47    23    53 1   
    48    24    25 ar  
    49    24    27 1   
    50    25    26 ar  
    51    25    54 1   
    52    26    55 1   
    53    27    28 ar  
    54    27    32 ar  
    55    28    29 ar  
    56    28    56 1   
    57    29    30 ar  
    58    29    57 1   
    59    30    31 ar  
    60    30    58 1   
    61    31    32 ar  
    62    32    59 1   
@<TRIPOS>SUBSTRUCTURE
     1 KAO         1 TEMP              0 ****  ****    0 ROOT
