@<TRIPOS>MOLECULE
KAP
   29    28     1     0     0
SMALL
No Charge or Current Charge


@<TRIPOS>ATOM
      1 CA           0.7920    -0.0640    -3.2560 c3         1 KAP      -0.204400
      2 C            0.0750    -0.8530    -4.3670 c          1 KAP       0.717000
      3 OI1         -0.7910    -0.2830    -5.0130 o          1 KAP      -0.743000
      4 OI2          0.3690    -2.0290    -4.5220 o          1 KAP      -0.743000
      5 CB           0.0220    -0.2010    -1.9200 c3         1 KAP      -0.054400
      6 CG           0.6850     0.5670    -0.7550 c3         1 KAP      -0.081400
      7 CD          -0.0850     0.4290     0.5770 c3         1 KAP      -0.067400
      8 CE           0.5820     1.2020     1.7410 c3         1 KAP      -0.175400
      9 CZ          -0.1870     1.0270     3.0630 c          1 KAP       0.575100
     10 CH           0.4740     0.0960     4.1510 c3         1 KAP       0.050500
     11 CS           0.4460    -1.3900     3.7310 c3         1 KAP      -0.127100
     12 O           -1.2470     1.6160     3.2570 o          1 KAP      -0.513100
     13 N           -0.0650     0.2180     5.5480 n8         1 KAP      -0.979200
     14 HA2          0.8000     1.0080    -3.4900 hc         1 KAP       0.013700
     15 HA1          1.7900    -0.4820    -3.0710 hc         1 KAP       0.013700
     16 HB2         -0.0530    -1.2630    -1.6540 hc         1 KAP       0.040700
     17 HB1         -1.0030     0.1670    -2.0560 hc         1 KAP       0.040700
     18 HG2          0.7590     1.6300    -1.0190 hc         1 KAP       0.021700
     19 HG1          1.7090     0.1990    -0.6170 hc         1 KAP       0.021700
     20 HD2         -0.1620    -0.6340     0.8380 hc         1 KAP       0.049700
     21 HD1         -1.1100     0.7970     0.4400 hc         1 KAP       0.049700
     22 HE2          0.6030     2.2680     1.4840 hc         1 KAP       0.054700
     23 HE1          1.6060     0.8290     1.8600 hc         1 KAP       0.054700
     24 HH           1.5310     0.3950     4.1920 h1         1 KAP       0.070700
     25 HS3          0.9200    -2.0240     4.4910 hc         1 KAP       0.040033
     26 HS2         -0.5850    -1.7370     3.5850 hc         1 KAP       0.040033
     27 HS1          0.9930    -1.5390     2.7920 hc         1 KAP       0.040033
     28 H1          -1.0710     0.0080     5.5440 hn         1 KAP       0.396000
     29 H2           0.3360    -0.5220     6.1370 hn         1 KAP       0.396000
@<TRIPOS>BOND
     1     1     2 1   
     2     1     5 1   
     3     1    14 1   
     4     1    15 1   
     5     2     3 1   
     6     2     4 1   
     7     5     6 1   
     8     5    16 1   
     9     5    17 1   
    10     6     7 1   
    11     6    18 1   
    12     6    19 1   
    13     7     8 1   
    14     7    20 1   
    15     7    21 1   
    16     8     9 1   
    17     8    22 1   
    18     8    23 1   
    19     9    10 1   
    20     9    12 2   
    21    10    11 1   
    22    10    13 1   
    23    10    24 1   
    24    11    25 1   
    25    11    26 1   
    26    11    27 1   
    27    13    28 1   
    28    13    29 1   
@<TRIPOS>SUBSTRUCTURE
     1 KAP         1 TEMP              0 ****  ****    0 ROOT
