@<TRIPOS>MOLECULE
KAP
   29    28     1     0     0
SMALL
abcg2


@<TRIPOS>ATOM
      1 CA           0.7500     0.1090    -3.3610 c3         1 KAP      -0.204400
      2 C            0.0710    -0.0830    -4.7280 c          1 KAP       0.717000
      3 OI1          0.7860     0.1370    -5.7300 o          1 KAP      -0.743000
      4 OI2         -1.1210    -0.4470    -4.7420 o          1 KAP      -0.743000
      5 CB          -0.1510    -0.0150    -2.1440 c3         1 KAP      -0.054400
      6 CG           0.5970     0.1920    -0.8320 c3         1 KAP      -0.081400
      7 CD          -0.3010     0.0590     0.3920 c3         1 KAP      -0.067400
      8 CE           0.4580     0.2950     1.6870 c3         1 KAP      -0.175400
      9 CZ          -0.3590     0.1490     2.9430 c          1 KAP       0.575100
     10 CH           0.3910     0.2740     4.2590 c3         1 KAP       0.050500
     11 CS           1.1400    -1.0410     4.5270 c3         1 KAP      -0.127100
     12 O           -1.5480    -0.0750     2.9220 o          1 KAP      -0.513100
     13 N           -0.5200     0.6710     5.3140 n8         1 KAP      -0.979200
     14 HA2          1.2480     1.0850    -3.3560 hc         1 KAP       0.013700
     15 HA1          1.5650    -0.6220    -3.2870 hc         1 KAP       0.013700
     16 HB2         -0.6290    -0.9990    -2.1350 hc         1 KAP       0.040700
     17 HB1         -0.9660     0.7140    -2.2100 hc         1 KAP       0.040700
     18 HG2          1.0690     1.1810    -0.8330 hc         1 KAP       0.021700
     19 HG1          1.4170    -0.5320    -0.7630 hc         1 KAP       0.021700
     20 HD2         -0.7520    -0.9380     0.4030 hc         1 KAP       0.049700
     21 HD1         -1.1280     0.7700     0.3150 hc         1 KAP       0.049700
     22 HE2          0.8910     1.3030     1.7000 hc         1 KAP       0.054700
     23 HE1          1.3230    -0.3750     1.7530 hc         1 KAP       0.054700
     24 HH           1.1390     1.0650     4.1400 h1         1 KAP       0.070700
     25 HS3          1.6830    -0.9650     5.4690 hc         1 KAP       0.040033
     26 HS2          0.4430    -1.8770     4.6060 hc         1 KAP       0.040033
     27 HS1          1.8660    -1.2750     3.7480 hc         1 KAP       0.040033
     28 H1          -1.2230    -0.0460     5.4460 hn         1 KAP       0.396000
     29 H2          -0.0080     0.7190     6.1870 hn         1 KAP       0.396000
@<TRIPOS>BOND
     1     1     2 1   
     2     1     5 1   
     3     1    14 1   
     4     1    15 1   
     5     2     3 1   
     6     2     4 1   
     7     5     6 1   
     8     5    16 1   
     9     5    17 1   
    10     6     7 1   
    11     6    18 1   
    12     6    19 1   
    13     7     8 1   
    14     7    20 1   
    15     7    21 1   
    16     8     9 1   
    17     8    22 1   
    18     8    23 1   
    19     9    10 1   
    20     9    12 2   
    21    10    11 1   
    22    10    13 1   
    23    10    24 1   
    24    11    25 1   
    25    11    26 1   
    26    11    27 1   
    27    13    28 1   
    28    13    29 1   
@<TRIPOS>SUBSTRUCTURE
     1 KAP         1 TEMP              0 ****  ****    0 ROOT
