@<TRIPOS>MOLECULE
KAR
  115   124     1     0     0
SMALL
No Charge or Current Charge


@<TRIPOS>ATOM
      1 O1          15.8890    20.1010   133.9990 o          1 KAR      -0.478000
      2 C11         15.8340    21.1510   133.3660 c          1 KAR       0.603100
      3 O2          16.9510    21.8760   133.0090 os         1 KAR      -0.446100
      4 C9          18.2340    21.4090   133.4580 c3         1 KAR       0.153900
      5 C10         14.5110    21.7820   132.8080 c3         1 KAR       0.048500
      6 C12         14.4660    23.3160   133.1210 ca         1 KAR      -0.162300
      7 C14         13.9180    24.2110   132.1640 ca         1 KAR      -0.016000
      8 C15         13.8610    25.5760   132.4490 ca         1 KAR      -0.190300
      9 C18         14.8750    23.8440   134.3880 ca         1 KAR       0.196100
     10 O19         15.3220    22.9790   135.3700 os         1 KAR      -0.356100
     11 C20         15.8060    23.4310   136.6470 c3         1 KAR       0.151900
     12 C17         14.7940    25.2330   134.6470 ca         1 KAR      -0.241000
     13 C16         14.2980    26.0690   133.6540 ca         1 KAR       0.363000
     14 N24         14.1760    27.4600   133.6660 nh         1 KAR      -0.854400
     15 C25         14.1290    28.2540   134.9080 c3         1 KAR       0.228100
     16 C22         13.8300    28.0150   132.3080 c5         1 KAR       0.266500
     17 C21         13.2400    26.6960   131.6380 c5         1 KAR       0.018300
     18 C23         11.6970    26.6570   131.9120 c5         1 KAR      -0.082400
     19 C27         13.3190    26.6590   130.0820 c5         1 KAR       0.200500
     20 N30         12.2470    27.6420   129.7810 n3         1 KAR      -0.744600
     21 C34         11.9880    27.8170   128.3000 c6         1 KAR       0.208000
     22 C31         11.0780    27.2030   130.5870 c5         1 KAR       0.168800
     23 C29         14.6730    27.0800   129.3900 c6         1 KAR       0.014200
     24 C32         14.4420    27.3810   127.8940 c2         1 KAR      -0.211200
     25 C33         13.2450    27.7340   127.3930 c2         1 KAR      -0.216200
     26 C35         15.6850    25.8800   129.4660 c3         1 KAR      -0.082400
     27 C36         17.1390    26.1110   128.9780 c3         1 KAR      -0.082100
     28 C26         15.1880    28.4650   131.5990 c5         1 KAR       0.091000
     29 C83         16.4700    27.8360   132.2500 c          1 KAR       0.557000
     30 O4          16.9680    26.7220   132.1790 o          1 KAR      -0.459000
     31 C28         15.1710    28.4120   130.0420 c6         1 KAR      -0.054400
     32 O61         15.2880    29.8880   131.9430 os         1 KAR      -0.422100
     33 C24         16.3690    30.1020   132.7460 c          1 KAR       0.700100
     34 O3          16.7200    31.1860   133.1830 o          1 KAR      -0.509000
     35 N85         17.0400    28.9140   132.8920 n          1 KAR      -0.418400
     36 C19         18.3650    28.8430   133.5560 c3         1 KAR       0.114000
     37 C30         18.3010    28.6110   135.0810 c3         1 KAR       0.112600
     38 Cl1         17.7920    26.9170   135.5080 cl         1 KAR      -0.288000
     39 C13         13.2920    21.1490   133.5700 c3         1 KAR      -0.053400
     40 C41         11.8510    21.7540   133.3710 c6         1 KAR      -0.078700
     41 C91         11.3090    21.8500   131.9090 c6         1 KAR       0.224800
     42 C92         10.7830    21.0850   134.3030 c6         1 KAR      -0.055400
     43 C46         10.1900    19.7410   133.7570 c6         1 KAR       0.143000
     44 O10         11.2100    18.7450   133.7180 oh         1 KAR      -0.661000
     45 C94          9.0670    19.1710   134.6880 c3         1 KAR      -0.101400
     46 C45          7.8010    20.0390   134.8910 c3         1 KAR      -0.085100
     47 C95          9.6770    19.9800   132.2980 c6         1 KAR       0.200800
     48 N48         10.7200    20.5800   131.4140 n3         1 KAR      -0.817600
     49 C90         11.4730    19.7310   130.4510 c3         1 KAR       0.234800
     50 C89         12.9530    19.4080   130.7670 c3         1 KAR      -0.043200
     51 C7          13.9210    20.5380   130.4660 cc         1 KAR      -0.103400
     52 C3          14.3990    20.8000   129.1320 ca         1 KAR      -0.113800
     53 C4          15.3170    21.8030   129.1950 ca         1 KAR      -0.038200
     54 C5          15.9750    22.2770   128.0520 ca         1 KAR      -0.134000
     55 N9          15.4690    22.2320   130.4910 na         1 KAR      -0.224700
     56 C8          14.5570    21.4910   131.2920 cd         1 KAR      -0.061300
     57 C2          14.0590    20.1950   127.9110 ca         1 KAR      -0.058000
     58 C1          14.6990    20.6530   126.7400 ca         1 KAR      -0.149000
     59 C6          15.6560    21.6910   126.8100 ca         1 KAR      -0.091000
     60 H91         18.4420    20.4040   133.0700 h1         1 KAR       0.046700
     61 H92         19.0280    22.0810   133.1080 h1         1 KAR       0.046700
     62 H93         18.2750    21.3760   134.5550 h1         1 KAR       0.046700
     63 H14         13.5230    23.8650   131.2150 ha         1 KAR       0.126000
     64 H201        15.0190    23.9630   137.1970 h1         1 KAR       0.044033
     65 H202        16.1250    22.5750   137.2560 h1         1 KAR       0.044033
     66 H203        16.6670    24.1000   136.5240 h1         1 KAR       0.044033
     67 H17         15.1070    25.6660   135.5880 ha         1 KAR       0.127000
     68 H251        15.1130    28.2670   135.3930 h1         1 KAR       0.041367
     69 H252        13.8380    29.2910   134.6910 h1         1 KAR       0.041367
     70 H253        13.3930    27.8320   135.6050 h1         1 KAR       0.041367
     71 H22         13.0900    28.8290   132.3270 h1         1 KAR       0.095700
     72 H231        11.4010    27.2490   132.7870 hc         1 KAR       0.059700
     73 H232        11.3380    25.6380   132.1010 hc         1 KAR       0.059700
     74 H27         13.0350    25.6660   129.7040 h1         1 KAR       0.046700
     75 H341        11.4790    28.7760   128.1250 h1         1 KAR       0.042700
     76 H342        11.2940    27.0350   127.9580 h1         1 KAR       0.042700
     77 H311        10.3760    28.0280   130.7690 h1         1 KAR       0.041200
     78 H312        10.5250    26.4020   130.0760 h1         1 KAR       0.041200
     79 H32         15.3060    27.3350   127.2310 ha         1 KAR       0.178000
     80 H33         13.1130    27.9580   126.3300 ha         1 KAR       0.181000
     81 H351        15.2750    25.0500   128.8770 hc         1 KAR       0.057700
     82 H352        15.7300    25.4850   130.4830 hc         1 KAR       0.057700
     83 H361        17.6270    26.9200   129.5310 hc         1 KAR       0.031367
     84 H362        17.7320    25.2020   129.1340 hc         1 KAR       0.031367
     85 H363        17.1760    26.3490   127.9100 hc         1 KAR       0.031367
     86 H281        14.5080    29.2190   129.6990 hc         1 KAR       0.071700
     87 H282        16.1590    28.6850   129.6520 hc         1 KAR       0.071700
     88 H191        18.9020    29.7830   133.3720 h1         1 KAR       0.078700
     89 H192        18.9660    28.0460   133.1000 h1         1 KAR       0.078700
     90 H301        17.5960    29.3100   135.5460 h1         1 KAR       0.078700
     91 H302        19.2950    28.7670   135.5190 h1         1 KAR       0.078700
     92 H131        13.5110    21.2600   134.6380 hc         1 KAR       0.074700
     93 H132        13.3100    20.0710   133.4490 hc         1 KAR       0.074700
     94 H41         11.9430    22.7890   133.7250 hc         1 KAR       0.047700
     95 H911        12.0710    22.2300   131.2210 h1         1 KAR       0.042700
     96 H912        10.5160    22.6130   131.9110 h1         1 KAR       0.042700
     97 H921         9.9660    21.8070   134.4310 hc         1 KAR       0.047700
     98 H922        11.1980    20.9330   135.3090 hc         1 KAR       0.047700
     99 H10         11.6920    18.9480   132.8900 ho         1 KAR       0.433000
    100 H941         9.4910    18.9660   135.6790 hc         1 KAR       0.043700
    101 H942         8.7390    18.1980   134.3010 hc         1 KAR       0.043700
    102 H451         7.2940    20.2350   133.9400 hc         1 KAR       0.034033
    103 H452         7.0920    19.5170   135.5450 hc         1 KAR       0.034033
    104 H453         8.0430    20.9970   135.3650 hc         1 KAR       0.034033
    105 H951         8.8190    20.6670   132.3370 h1         1 KAR       0.041700
    106 H952         9.2980    19.0370   131.8770 h1         1 KAR       0.041700
    107 H901        11.4480    20.2150   129.4650 h1         1 KAR       0.038700
    108 H902        10.9440    18.7760   130.3270 h1         1 KAR       0.038700
    109 H891        13.2270    18.5730   130.1130 hc         1 KAR       0.057700
    110 H892        13.0730    18.9790   131.7580 hc         1 KAR       0.057700
    111 H5          16.7110    23.0740   128.1180 ha         1 KAR       0.113000
    112 HN9         16.1230    22.9310   130.8250 hn         1 KAR       0.366000
    113 H2          13.3230    19.3960   127.8600 ha         1 KAR       0.111000
    114 H1          14.4560    20.2050   125.7800 ha         1 KAR       0.108000
    115 H6          16.1490    22.0390   125.9040 ha         1 KAR       0.107000
@<TRIPOS>BOND
     1     1     2 2   
     2     2     3 1   
     3     2     5 1   
     4     3     4 1   
     5     4    60 1   
     6     4    61 1   
     7     4    62 1   
     8     5     6 1   
     9     5    39 1   
    10     5    56 1   
    11     6     7 ar  
    12     6     9 ar  
    13     7     8 ar  
    14     7    63 1   
    15     8    13 ar  
    16     8    17 1   
    17     9    10 1   
    18     9    12 ar  
    19    10    11 1   
    20    11    64 1   
    21    11    65 1   
    22    11    66 1   
    23    12    13 ar  
    24    12    67 1   
    25    13    14 1   
    26    14    15 1   
    27    14    16 1   
    28    15    68 1   
    29    15    69 1   
    30    15    70 1   
    31    16    17 1   
    32    16    28 1   
    33    16    71 1   
    34    17    18 1   
    35    17    19 1   
    36    18    22 1   
    37    18    72 1   
    38    18    73 1   
    39    19    20 1   
    40    19    23 1   
    41    19    74 1   
    42    20    21 1   
    43    20    22 1   
    44    21    25 1   
    45    21    75 1   
    46    21    76 1   
    47    22    77 1   
    48    22    78 1   
    49    23    24 1   
    50    23    26 1   
    51    23    31 1   
    52    24    25 2   
    53    24    79 1   
    54    25    80 1   
    55    26    27 1   
    56    26    81 1   
    57    26    82 1   
    58    27    83 1   
    59    27    84 1   
    60    27    85 1   
    61    28    29 1   
    62    28    31 1   
    63    28    32 1   
    64    29    30 2   
    65    29    35 1   
    66    31    86 1   
    67    31    87 1   
    68    32    33 1   
    69    33    34 2   
    70    33    35 1   
    71    35    36 1   
    72    36    37 1   
    73    36    88 1   
    74    36    89 1   
    75    37    38 1   
    76    37    90 1   
    77    37    91 1   
    78    39    40 1   
    79    39    92 1   
    80    39    93 1   
    81    40    41 1   
    82    40    42 1   
    83    40    94 1   
    84    41    48 1   
    85    41    95 1   
    86    41    96 1   
    87    42    43 1   
    88    42    97 1   
    89    42    98 1   
    90    43    44 1   
    91    43    45 1   
    92    43    47 1   
    93    44    99 1   
    94    45    46 1   
    95    45   100 1   
    96    45   101 1   
    97    46   102 1   
    98    46   103 1   
    99    46   104 1   
   100    47    48 1   
   101    47   105 1   
   102    47   106 1   
   103    48    49 1   
   104    49    50 1   
   105    49   107 1   
   106    49   108 1   
   107    50    51 1   
   108    50   109 1   
   109    50   110 1   
   110    51    52 1   
   111    51    56 2   
   112    52    53 ar  
   113    52    57 ar  
   114    53    54 ar  
   115    53    55 1   
   116    54    59 ar  
   117    54   111 1   
   118    55    56 1   
   119    55   112 1   
   120    57    58 ar  
   121    57   113 1   
   122    58    59 ar  
   123    58   114 1   
   124    59   115 1   
@<TRIPOS>SUBSTRUCTURE
     1 KAR         1 TEMP              0 ****  ****    0 ROOT
