@<TRIPOS>MOLECULE
KAR
  115   124     1     0     0
SMALL
abcg2


@<TRIPOS>ATOM
      1 O1          15.7870    20.1560   133.9520 o          1 KAR      -0.478000
      2 C11         15.7100    21.2270   133.3950 c          1 KAR       0.603100
      3 O2          16.7760    21.9810   133.1070 os         1 KAR      -0.446100
      4 C9          18.0550    21.4880   133.5460 c3         1 KAR       0.153900
      5 C10         14.4010    21.8380   132.8310 c3         1 KAR       0.048500
      6 C12         14.3400    23.3450   133.0980 ca         1 KAR      -0.162300
      7 C14         13.8330    24.2420   132.1500 ca         1 KAR      -0.016000
      8 C15         13.7610    25.5880   132.4160 ca         1 KAR      -0.190300
      9 C18         14.6980    23.8560   134.3570 ca         1 KAR       0.196100
     10 O19         15.1230    22.9400   135.2750 os         1 KAR      -0.356100
     11 C20         15.7370    23.3950   136.4770 c3         1 KAR       0.151900
     12 C17         14.6280    25.2210   134.6540 ca         1 KAR      -0.241000
     13 C16         14.1750    26.0800   133.6600 ca         1 KAR       0.363000
     14 N24         14.0590    27.4530   133.6920 nh         1 KAR      -0.854400
     15 C25         14.2930    28.2880   134.8450 c3         1 KAR       0.228100
     16 C22         13.8640    27.9480   132.3350 c5         1 KAR       0.266500
     17 C21         13.1820    26.7430   131.6290 c5         1 KAR       0.018300
     18 C23         11.6450    26.8140   131.8650 c5         1 KAR      -0.082400
     19 C27         13.2590    26.7650   130.0980 c5         1 KAR       0.200500
     20 N30         12.2090    27.7200   129.7410 n3         1 KAR      -0.744600
     21 C34         11.8870    27.7360   128.3310 c6         1 KAR       0.208000
     22 C31         11.0630    27.5030   130.6230 c5         1 KAR       0.168800
     23 C29         14.5950    27.1770   129.4560 c6         1 KAR       0.014200
     24 C32         14.3370    27.5370   128.0060 c2         1 KAR      -0.211200
     25 C33         13.1300    27.7610   127.5000 c2         1 KAR      -0.216200
     26 C35         15.5640    25.9700   129.4880 c3         1 KAR      -0.082400
     27 C36         16.9770    26.2210   128.9680 c3         1 KAR      -0.082100
     28 C26         15.1860    28.4290   131.6800 c5         1 KAR       0.091000
     29 C83         16.4570    27.7750   132.2400 c          1 KAR       0.557000
     30 O4          16.8080    26.6250   132.1790 o          1 KAR      -0.459000
     31 C28         15.1260    28.4510   130.1510 c6         1 KAR      -0.054400
     32 O61         15.3620    29.8280   132.1040 os         1 KAR      -0.422100
     33 C24         16.5330    30.0080   132.7290 c          1 KAR       0.700100
     34 O3          16.9260    31.0700   133.1400 o          1 KAR      -0.509000
     35 N85         17.1870    28.7930   132.8190 n          1 KAR      -0.418400
     36 C19         18.5260    28.6470   133.3710 c3         1 KAR       0.114000
     37 C30         18.5670    28.5870   134.8830 c3         1 KAR       0.112600
     38 CL1         17.8510    27.0500   135.5260 cl         1 KAR      -0.288000
     39 C13         13.2200    21.1340   133.5400 c3         1 KAR      -0.053400
     40 C41         11.8240    21.7440   133.3640 c6         1 KAR      -0.078700
     41 C91         11.2390    21.8300   131.9390 c6         1 KAR       0.224800
     42 C92         10.8030    21.0230   134.2680 c6         1 KAR      -0.055400
     43 C46         10.2610    19.7020   133.7150 c6         1 KAR       0.143000
     44 O10         11.3470    18.7480   133.7430 oh         1 KAR      -0.661000
     45 C94          9.1360    19.1300   134.5950 c3         1 KAR      -0.101400
     46 C45          7.8790    19.9790   134.7830 c3         1 KAR      -0.085100
     47 C95          9.7910    19.9110   132.2660 c6         1 KAR       0.200800
     48 N48         10.7390    20.5810   131.4040 n3         1 KAR      -0.817600
     49 C90         11.5130    19.8360   130.4380 c3         1 KAR       0.234800
     50 C89         12.9670    19.4430   130.7980 c3         1 KAR      -0.043200
     51 C7          13.9690    20.5310   130.5420 cc         1 KAR      -0.103400
     52 C3          14.5250    20.7290   129.2250 ca         1 KAR      -0.113800
     53 C4          15.4110    21.8330   129.2920 ca         1 KAR      -0.038200
     54 C5          16.1220    22.2890   128.1810 ca         1 KAR      -0.134000
     55 N9          15.3840    22.2830   130.5800 na         1 KAR      -0.224700
     56 C8          14.5070    21.5220   131.3440 cd         1 KAR      -0.061300
     57 C2          14.3580    20.0680   127.9990 ca         1 KAR      -0.058000
     58 C1          15.0640    20.5160   126.8930 ca         1 KAR      -0.149000
     59 C6          15.9370    21.6160   126.9840 ca         1 KAR      -0.091000
     60 H91         18.2670    20.5230   133.0890 h1         1 KAR       0.046700
     61 H92         18.7790    22.2300   133.2220 h1         1 KAR       0.046700
     62 H93         18.0670    21.3920   134.6310 h1         1 KAR       0.046700
     63 H14         13.5100    23.8720   131.1880 ha         1 KAR       0.126000
     64 H201        15.0250    23.9320   137.1070 h1         1 KAR       0.044033
     65 H202        16.0770    22.5010   136.9940 h1         1 KAR       0.044033
     66 H203        16.5900    24.0420   136.2590 h1         1 KAR       0.044033
     67 H17         14.9500    25.6020   135.6100 ha         1 KAR       0.127000
     68 H251        15.3540    28.4250   135.0750 h1         1 KAR       0.041367
     69 H252        13.8470    29.2660   134.6680 h1         1 KAR       0.041367
     70 H253        13.8160    27.8480   135.7230 h1         1 KAR       0.041367
     71 H22         13.2090    28.8190   132.3350 h1         1 KAR       0.095700
     72 H231        11.4150    27.3330   132.7950 hc         1 KAR       0.059700
     73 H232        11.2590    25.7990   131.9520 hc         1 KAR       0.059700
     74 H27         13.0120    25.7520   129.7330 h1         1 KAR       0.046700
     75 H341        11.2740    28.6160   128.1110 h1         1 KAR       0.042700
     76 H342        11.2730    26.8580   128.0470 h1         1 KAR       0.042700
     77 H311        10.5750    28.4540   130.8490 h1         1 KAR       0.041200
     78 H312        10.3150    26.8550   130.1460 h1         1 KAR       0.041200
     79 H32         15.2050    27.5930   127.3590 ha         1 KAR       0.178000
     80 H33         13.0090    27.9730   126.4430 ha         1 KAR       0.181000
     81 H351        15.1000    25.1780   128.8940 hc         1 KAR       0.057700
     82 H352        15.6290    25.5960   130.5060 hc         1 KAR       0.057700
     83 H361        17.4990    26.9760   129.5570 hc         1 KAR       0.031367
     84 H362        17.5600    25.3010   129.0330 hc         1 KAR       0.031367
     85 H363        16.9870    26.5430   127.9260 hc         1 KAR       0.031367
     86 H281        14.4420    29.2630   129.9070 hc         1 KAR       0.071700
     87 H282        16.1050    28.7280   129.7570 hc         1 KAR       0.071700
     88 H191        19.1120    29.5100   133.0520 h1         1 KAR       0.078700
     89 H192        18.9590    27.7500   132.9330 h1         1 KAR       0.078700
     90 H301        18.0080    29.3990   135.3380 h1         1 KAR       0.078700
     91 H302        19.5990    28.6120   135.2230 h1         1 KAR       0.078700
     92 H131        13.4420    21.1810   134.6070 hc         1 KAR       0.074700
     93 H132        13.2170    20.0820   133.2920 hc         1 KAR       0.074700
     94 H41         11.8850    22.7750   133.7240 hc         1 KAR       0.047700
     95 H911        11.9610    22.2470   131.2410 h1         1 KAR       0.042700
     96 H912        10.4030    22.5440   131.9950 h1         1 KAR       0.042700
     97 H921         9.9490    21.6890   134.4030 hc         1 KAR       0.047700
     98 H922        11.2300    20.8450   135.2590 hc         1 KAR       0.047700
     99 H10         11.0230    17.9230   133.3600 ho         1 KAR       0.433000
    100 H941         9.5780    18.9170   135.5730 hc         1 KAR       0.043700
    101 H942         8.8530    18.1620   134.1670 hc         1 KAR       0.043700
    102 H451         7.3710    20.1750   133.8380 hc         1 KAR       0.034033
    103 H452         7.1730    19.4560   135.4320 hc         1 KAR       0.034033
    104 H453         8.1030    20.9390   135.2500 hc         1 KAR       0.034033
    105 H951         8.8680    20.5040   132.3030 h1         1 KAR       0.041700
    106 H952         9.5320    18.9420   131.8320 h1         1 KAR       0.041700
    107 H901        11.5550    20.4020   129.4980 h1         1 KAR       0.038700
    108 H902        10.9560    18.9220   130.2250 h1         1 KAR       0.038700
    109 H891        13.2340    18.6020   130.1510 hc         1 KAR       0.057700
    110 H892        12.9910    19.0660   131.8150 hc         1 KAR       0.057700
    111 H5          16.7920    23.1360   128.2540 ha         1 KAR       0.113000
    112 HN9         15.9240    23.0510   130.9410 hn         1 KAR       0.366000
    113 H2          13.6880    19.2220   127.9140 ha         1 KAR       0.111000
    114 H1          14.9430    20.0140   125.9410 ha         1 KAR       0.108000
    115 H6          16.4730    21.9430   126.1010 ha         1 KAR       0.107000
@<TRIPOS>BOND
     1     1     2 2   
     2     2     3 1   
     3     2     5 1   
     4     3     4 1   
     5     4    60 1   
     6     4    61 1   
     7     4    62 1   
     8     5     6 1   
     9     5    39 1   
    10     5    56 1   
    11     6     7 ar  
    12     6     9 ar  
    13     7     8 ar  
    14     7    63 1   
    15     8    13 ar  
    16     8    17 1   
    17     9    10 1   
    18     9    12 ar  
    19    10    11 1   
    20    11    64 1   
    21    11    65 1   
    22    11    66 1   
    23    12    13 ar  
    24    12    67 1   
    25    13    14 1   
    26    14    15 1   
    27    14    16 1   
    28    15    68 1   
    29    15    69 1   
    30    15    70 1   
    31    16    17 1   
    32    16    28 1   
    33    16    71 1   
    34    17    18 1   
    35    17    19 1   
    36    18    22 1   
    37    18    72 1   
    38    18    73 1   
    39    19    20 1   
    40    19    23 1   
    41    19    74 1   
    42    20    21 1   
    43    20    22 1   
    44    21    25 1   
    45    21    75 1   
    46    21    76 1   
    47    22    77 1   
    48    22    78 1   
    49    23    24 1   
    50    23    26 1   
    51    23    31 1   
    52    24    25 2   
    53    24    79 1   
    54    25    80 1   
    55    26    27 1   
    56    26    81 1   
    57    26    82 1   
    58    27    83 1   
    59    27    84 1   
    60    27    85 1   
    61    28    29 1   
    62    28    31 1   
    63    28    32 1   
    64    29    30 2   
    65    29    35 1   
    66    31    86 1   
    67    31    87 1   
    68    32    33 1   
    69    33    34 2   
    70    33    35 1   
    71    35    36 1   
    72    36    37 1   
    73    36    88 1   
    74    36    89 1   
    75    37    38 1   
    76    37    90 1   
    77    37    91 1   
    78    39    40 1   
    79    39    92 1   
    80    39    93 1   
    81    40    41 1   
    82    40    42 1   
    83    40    94 1   
    84    41    48 1   
    85    41    95 1   
    86    41    96 1   
    87    42    43 1   
    88    42    97 1   
    89    42    98 1   
    90    43    44 1   
    91    43    45 1   
    92    43    47 1   
    93    44    99 1   
    94    45    46 1   
    95    45   100 1   
    96    45   101 1   
    97    46   102 1   
    98    46   103 1   
    99    46   104 1   
   100    47    48 1   
   101    47   105 1   
   102    47   106 1   
   103    48    49 1   
   104    49    50 1   
   105    49   107 1   
   106    49   108 1   
   107    50    51 1   
   108    50   109 1   
   109    50   110 1   
   110    51    52 1   
   111    51    56 2   
   112    52    53 ar  
   113    52    57 ar  
   114    53    54 ar  
   115    53    55 1   
   116    54    59 ar  
   117    54   111 1   
   118    55    56 1   
   119    55   112 1   
   120    57    58 ar  
   121    57   113 1   
   122    58    59 ar  
   123    58   114 1   
   124    59   115 1   
@<TRIPOS>SUBSTRUCTURE
     1 KAR         1 TEMP              0 ****  ****    0 ROOT
