@<TRIPOS>MOLECULE
KAT
   34    36     1     0     0
SMALL
bcc


@<TRIPOS>ATOM
      1 CAG          1.0220     1.5220     0.1630 c6         1 KAT       0.170300
      2 CAH         -0.2470     1.7260     0.9720 c6         1 KAT       0.097000
      3 NAL         -1.2360     0.7040     0.6640 n          1 KAT      -0.451800
      4 CAM         -2.3450     1.0430     0.0020 c          1 KAT       0.705900
      5 OAN         -2.5870     2.1180    -0.5010 o          1 KAT      -0.570100
      6 CAI         -0.7190    -0.6430     0.8750 c6         1 KAT       0.097000
      7 CAJ          0.5580    -0.8350     0.0750 c6         1 KAT       0.170300
      8 NAK          1.5410     0.1900     0.3920 nh         1 KAT      -0.651000
      9 CAF          2.8670    -0.0690     0.0280 ca         1 KAT       0.144600
     10 CAA          3.4730    -1.2690     0.4260 ca         1 KAT      -0.172000
     11 CAB          4.7920    -1.5410     0.1070 ca         1 KAT      -0.102000
     12 CAC          5.5560    -0.6230    -0.6060 ca         1 KAT      -0.153000
     13 CAD          4.9680     0.5690    -0.9970 ca         1 KAT      -0.102000
     14 CAE          3.6400     0.8450    -0.6950 ca         1 KAT      -0.172000
     15 H1           0.8160     1.7130    -0.9010 h1         1 KAT       0.050450
     16 H2           1.7500     2.2610     0.4980 h1         1 KAT       0.050450
     17 H3          -0.0140     1.6520     2.0380 h1         1 KAT       0.075950
     18 H4          -0.6550     2.7140     0.7830 h1         1 KAT       0.075950
     19 H6          -0.5210    -0.7780     1.9400 h1         1 KAT       0.075950
     20 H7          -1.4370    -1.3970     0.5730 h1         1 KAT       0.075950
     21 H8           0.9490    -1.8220     0.3120 h1         1 KAT       0.050450
     22 H9           0.3160    -0.8280    -0.9980 h1         1 KAT       0.050450
     23 H10          2.9170    -1.9890     1.0120 ha         1 KAT       0.131500
     24 H11          5.2310    -2.4750     0.4350 ha         1 KAT       0.130000
     25 H12          6.5890    -0.8350    -0.8490 ha         1 KAT       0.134000
     26 H13          5.5400     1.2980    -1.5580 ha         1 KAT       0.130000
     27 H14          3.2160     1.7780    -1.0410 ha         1 KAT       0.131500
     28 N1          -3.3520     0.0260    -0.0810 n          1 KAT       0.060300
     29 C2          -4.2020    -0.1700    -1.1120 cc         1 KAT      -0.196600
     30 C1          -5.0510    -1.1320    -0.6530 cd         1 KAT       0.248200
     31 N3          -4.6940    -1.4440     0.6180 nd         1 KAT      -0.347000
     32 N2          -3.6790    -0.7440     0.9580 nc         1 KAT      -0.188800
     33 H5          -4.1290     0.3540    -2.0490 h4         1 KAT       0.198000
     34 H15         -5.8790    -1.6060    -1.1520 h4         1 KAT       0.053100
@<TRIPOS>BOND
     1     1     2 1   
     2     1     8 1   
     3     1    15 1   
     4     1    16 1   
     5     2     3 1   
     6     2    17 1   
     7     2    18 1   
     8     3     4 1   
     9     3     6 1   
    10     4     5 2   
    11     4    28 1   
    12     6     7 1   
    13     6    19 1   
    14     6    20 1   
    15     7     8 1   
    16     7    21 1   
    17     7    22 1   
    18     8     9 1   
    19     9    10 ar  
    20     9    14 ar  
    21    10    11 ar  
    22    10    23 1   
    23    11    12 ar  
    24    11    24 1   
    25    12    13 ar  
    26    12    25 1   
    27    13    14 ar  
    28    13    26 1   
    29    14    27 1   
    30    28    29 1   
    31    28    32 1   
    32    29    30 2   
    33    29    33 1   
    34    30    31 1   
    35    30    34 1   
    36    31    32 2   
@<TRIPOS>SUBSTRUCTURE
     1 KAT         1 TEMP              0 ****  ****    0 ROOT
