@<TRIPOS>MOLECULE
KAT
   34    36     1     0     0
SMALL
No Charge or Current Charge


@<TRIPOS>ATOM
      1 CAG          1.1820     1.5900    -0.4420 c6         1 KAT       0.170300
      2 CAH         -0.2600     1.7980     0.0920 c6         1 KAT       0.097000
      3 NAL         -1.2480     0.6930    -0.1660 n          1 KAT      -0.384800
      4 CAM         -2.6300     0.9470     0.0940 c          1 KAT       0.638900
      5 OAN         -2.9910     2.1070     0.2770 o          1 KAT      -0.570100
      6 CAI         -0.6700    -0.6890    -0.3010 c6         1 KAT       0.097000
      7 CAJ          0.8010    -0.7910    -0.7900 c6         1 KAT       0.170300
      8 NAK          1.6740     0.2220    -0.1540 nh         1 KAT      -0.789400
      9 CAF          3.0540    -0.0490     0.0110 ca         1 KAT       0.283000
     10 CAA          3.4540    -1.1600     0.7780 ca         1 KAT      -0.154000
     11 CAB          4.8170    -1.4550     0.9600 ca         1 KAT      -0.084000
     12 CAC          5.7950    -0.6380     0.3700 ca         1 KAT      -0.135000
     13 CAD          5.4090     0.4720    -0.3980 ca         1 KAT      -0.084000
     14 CAE          4.0450     0.7650    -0.5760 ca         1 KAT      -0.154000
     15 H1           1.1890     1.7690    -1.5280 h1         1 KAT       0.050450
     16 H2           1.8330     2.3460     0.0200 h1         1 KAT       0.050450
     17 H3          -0.1970     1.9420     1.1790 h1         1 KAT       0.075950
     18 H4          -0.6390     2.7400    -0.3290 h1         1 KAT       0.075950
     19 H6          -0.7430    -1.1900     0.6750 h1         1 KAT       0.075950
     20 H7          -1.2660    -1.2680    -1.0180 h1         1 KAT       0.075950
     21 H8           1.1660    -1.8090    -0.5940 h1         1 KAT       0.050450
     22 H9           0.8170    -0.6520    -1.8810 h1         1 KAT       0.050450
     23 H10          2.7040    -1.7920     1.2440 ha         1 KAT       0.113500
     24 H11          5.1130    -2.3150     1.5570 ha         1 KAT       0.112000
     25 H12          6.8500    -0.8640     0.5090 ha         1 KAT       0.116000
     26 H13          6.1660     1.1050    -0.8580 ha         1 KAT       0.112000
     27 H14          3.7660     1.6200    -1.1840 ha         1 KAT       0.113500
     28 N1          -3.5990    -0.1090     0.1500 n          1 KAT       0.111000
     29 C2          -4.9480     0.0520     0.3700 cc         1 KAT      -0.164000
     30 C1          -5.5900    -1.1570     0.3810 cd         1 KAT       0.182900
     31 N3          -4.6130    -2.1190     0.1630 nd         1 KAT      -0.347000
     32 N2          -3.4860    -1.4680     0.0400 nc         1 KAT      -0.188800
     33 H5          -5.3240     1.0570     0.5010 h4         1 KAT       0.180000
     34 H15         -6.6380    -1.3880     0.5250 h4         1 KAT       0.053100
@<TRIPOS>BOND
     1     1     2 1   
     2     1     8 1   
     3     1    15 1   
     4     1    16 1   
     5     2     3 1   
     6     2    17 1   
     7     2    18 1   
     8     3     4 1   
     9     3     6 1   
    10     4     5 2   
    11     4    28 1   
    12     6     7 1   
    13     6    19 1   
    14     6    20 1   
    15     7     8 1   
    16     7    21 1   
    17     7    22 1   
    18     8     9 1   
    19     9    10 ar  
    20     9    14 ar  
    21    10    11 ar  
    22    10    23 1   
    23    11    12 ar  
    24    11    24 1   
    25    12    13 ar  
    26    12    25 1   
    27    13    14 ar  
    28    13    26 1   
    29    14    27 1   
    30    28    29 1   
    31    28    32 1   
    32    29    30 2   
    33    29    33 1   
    34    30    31 1   
    35    30    34 1   
    36    31    32 2   
@<TRIPOS>SUBSTRUCTURE
     1 KAT         1 TEMP              0 ****  ****    0 ROOT
