@<TRIPOS>MOLECULE
KAU
   46    49     1     0     0
SMALL
No Charge or Current Charge


@<TRIPOS>ATOM
      1 N1          95.6140   -12.1040     9.6890 nh         1 KAU      -0.798300
      2 N3          93.7110   -12.8890     8.6280 nb         1 KAU      -0.747000
      3 C4          94.8160   -11.3780    10.7210 c5         1 KAU       0.216800
      4 C5          97.0730   -11.8650     9.8450 c5         1 KAU       0.232800
      5 C6          95.8400   -13.6990     7.8240 ca         1 KAU      -0.235000
      6 C7          97.0950   -10.6250    10.7760 c5         1 KAU      -0.107400
      7 C8          93.1080   -13.6510     7.6840 ca         1 KAU       0.406900
      8 C10         93.8150   -14.4630     6.7750 ca         1 KAU      -0.009000
      9 N12         95.5320    -9.6890    12.3430 ns         1 KAU      -0.491900
     10 C15         93.2730    -7.9930    14.8300 cc         1 KAU      -0.104000
     11 C20         92.1190    -8.7260    15.3760 ca         1 KAU       0.042000
     12 C21         94.5620    -9.6880    13.3350 c          1 KAU       0.533600
     13 C24         90.3300   -10.3680    15.2210 ca         1 KAU       0.331900
     14 C26         90.4870    -9.0960    17.1440 ca         1 KAU       0.331900
     15 C2          95.0540   -12.9160     8.6900 ca         1 KAU       0.637900
     16 C9          95.9280   -10.9690    11.7330 c5         1 KAU       0.094700
     17 C11         95.2150   -14.4890     6.8450 ca         1 KAU      -0.022000
     18 C14         94.2670    -8.3020    13.8570 cc         1 KAU       0.213500
     19 C16         93.3800    -6.6560    15.0840 cd         1 KAU      -0.167000
     20 N17         94.4290    -6.2170    14.2790 na         1 KAU       0.152800
     21 N18         94.9760    -7.2290    13.5100 nd         1 KAU      -0.527800
     22 C19         94.9340    -4.8410    14.1790 c3         1 KAU       0.069900
     23 O22         94.0550   -10.7310    13.7340 o          1 KAU      -0.586100
     24 C23         91.4400    -9.7230    14.6510 ca         1 KAU      -0.143500
     25 N25         89.8550   -10.0700    16.4510 nb         1 KAU      -0.664000
     26 C27         91.6020    -8.4020    16.6460 ca         1 KAU      -0.143500
     27 H1          94.3140   -10.5030    10.2850 h1         1 KAU       0.067700
     28 H2          94.0580   -12.0130    11.2010 h1         1 KAU       0.067700
     29 H3          97.5670   -12.7280    10.3140 h1         1 KAU       0.048200
     30 H4          97.5720   -11.6510     8.8890 h1         1 KAU       0.048200
     31 H5          96.9220   -13.7040     7.9060 ha         1 KAU       0.123000
     32 H6          98.0530   -10.5060    11.2930 hc         1 KAU       0.060200
     33 H7          96.9080    -9.7090    10.2010 hc         1 KAU       0.060200
     34 H8          92.0200   -13.6100     7.6550 h4         1 KAU       0.029100
     35 H9          95.9200    -8.7860    12.0910 hn         1 KAU       0.332500
     36 H10         89.7930   -11.1370    14.6690 h4         1 KAU       0.017100
     37 H11         90.0870    -8.8660    18.1310 h4         1 KAU       0.017100
     38 H12         96.1770   -11.7670    12.4460 h1         1 KAU       0.084700
     39 H13         95.7970   -15.1050     6.1630 ha         1 KAU       0.127000
     40 H14         92.7930    -5.9890    15.7040 h4         1 KAU       0.162000
     41 H15         94.6410    -4.4150    13.2120 h1         1 KAU       0.062033
     42 H16         94.5140    -4.2320    14.9880 h1         1 KAU       0.062033
     43 H17         96.0280    -4.8450    14.2590 h1         1 KAU       0.062033
     44 H18         91.7250    -9.9790    13.6370 ha         1 KAU       0.123500
     45 H19         92.0650    -7.6370    17.2620 ha         1 KAU       0.123500
     46 Cl13        92.9660   -15.4310     5.5710 cl         1 KAU      -0.198000
@<TRIPOS>BOND
     1     1     3 1   
     2     1     4 1   
     3     1    15 1   
     4     2     7 ar  
     5     2    15 ar  
     6     3    16 1   
     7     3    27 1   
     8     3    28 1   
     9     4     6 1   
    10     4    29 1   
    11     4    30 1   
    12     5    15 ar  
    13     5    17 ar  
    14     5    31 1   
    15     6    16 1   
    16     6    32 1   
    17     6    33 1   
    18     7     8 ar  
    19     7    34 1   
    20     8    17 ar  
    21     8    46 1   
    22     9    12 1   
    23     9    16 1   
    24     9    35 1   
    25    10    11 1   
    26    10    18 1   
    27    10    19 2   
    28    11    24 ar  
    29    11    26 ar  
    30    12    18 1   
    31    12    23 2   
    32    13    24 ar  
    33    13    25 ar  
    34    13    36 1   
    35    14    25 ar  
    36    14    26 ar  
    37    14    37 1   
    38    16    38 1   
    39    17    39 1   
    40    18    21 2   
    41    19    20 1   
    42    19    40 1   
    43    20    21 1   
    44    20    22 1   
    45    22    41 1   
    46    22    42 1   
    47    22    43 1   
    48    24    44 1   
    49    26    45 1   
@<TRIPOS>SUBSTRUCTURE
     1 KAU         1 TEMP              0 ****  ****    0 ROOT
