@<TRIPOS>MOLECULE
KAU
   46    49     1     0     0
SMALL
abcg2


@<TRIPOS>ATOM
      1 N1          95.5730   -12.0320     9.6030 nh         1 KAU      -0.798300
      2 N3          93.7510   -12.9660     8.5740 nb         1 KAU      -0.747000
      3 C4          94.7340   -11.2900    10.5210 c5         1 KAU       0.216800
      4 C5          96.9910   -11.7930     9.8060 c5         1 KAU       0.232800
      5 C6          95.9290   -13.6870     7.8840 ca         1 KAU      -0.235000
      6 C7          97.0180   -10.6200    10.7770 c5         1 KAU      -0.107400
      7 C8          93.2200   -13.8020     7.6940 ca         1 KAU       0.406900
      8 C10         93.9790   -14.6110     6.8710 ca         1 KAU      -0.009000
      9 N12         95.3310    -9.6100    12.2680 ns         1 KAU      -0.491900
     10 C15         93.1620    -7.9360    14.8040 cc         1 KAU      -0.104000
     11 C20         92.0590    -8.7030    15.3840 ca         1 KAU       0.042000
     12 C21         94.4630    -9.6200    13.2930 c          1 KAU       0.533600
     13 C24         90.1730   -10.1710    15.2240 ca         1 KAU       0.331900
     14 C26         90.6730    -9.2900    17.2520 ca         1 KAU       0.331900
     15 C2          95.0800   -12.8930     8.6880 ca         1 KAU       0.637900
     16 C9          95.7340   -10.8070    11.5770 c5         1 KAU       0.094700
     17 C11         95.3650   -14.5470     6.9710 ca         1 KAU      -0.022000
     18 C14         94.1680    -8.2890    13.8770 cc         1 KAU       0.213500
     19 C16         93.4070    -6.6000    15.0500 cd         1 KAU      -0.167000
     20 N17         94.4650    -6.2450    14.3040 na         1 KAU       0.152800
     21 N18         94.9390    -7.2510    13.5970 nd         1 KAU      -0.527800
     22 C19         95.0890    -4.9430    14.2300 c3         1 KAU       0.069900
     23 O22         93.9540   -10.6390    13.7380 o          1 KAU      -0.586100
     24 C23         91.2310    -9.5180    14.6140 ca         1 KAU      -0.143500
     25 N25         89.8870   -10.0690    16.5190 nb         1 KAU      -0.664000
     26 C27         91.7580    -8.5950    16.7400 ca         1 KAU      -0.143500
     27 H1          94.2490   -10.4360    10.0340 h1         1 KAU       0.067700
     28 H2          93.9530   -11.9180    10.9480 h1         1 KAU       0.067700
     29 H3          97.4850   -12.6740    10.2310 h1         1 KAU       0.048200
     30 H4          97.4970   -11.5540     8.8680 h1         1 KAU       0.048200
     31 H5          97.0050   -13.6370     7.9790 ha         1 KAU       0.123000
     32 H6          97.9110   -10.6150    11.3990 hc         1 KAU       0.060200
     33 H7          96.9820    -9.6760    10.2260 hc         1 KAU       0.060200
     34 H8          92.1370   -13.8280     7.6410 h4         1 KAU       0.029100
     35 H9          95.6640    -8.7200    11.9290 hn         1 KAU       0.332500
     36 H10         89.5200   -10.8040    14.6330 h4         1 KAU       0.017100
     37 H11         90.4330    -9.2130    18.3060 h4         1 KAU       0.017100
     38 H12         95.8820   -11.6020    12.3110 h1         1 KAU       0.084700
     39 H13         95.9960   -15.1660     6.3470 ha         1 KAU       0.127000
     40 H14         92.8880    -5.8940    15.6780 h4         1 KAU       0.162000
     41 H15         95.0920    -4.5890    13.2020 h1         1 KAU       0.062033
     42 H16         94.5220    -4.2500    14.8450 h1         1 KAU       0.062033
     43 H17         96.1110    -4.9940    14.5990 h1         1 KAU       0.062033
     44 H18         91.3900    -9.6340    13.5520 ha         1 KAU       0.123500
     45 H19         92.3650    -7.9850    17.3960 ha         1 KAU       0.123500
     46 CL13        93.2130   -15.6780     5.7420 cl         1 KAU      -0.198000
@<TRIPOS>BOND
     1     1     3 1   
     2     1     4 1   
     3     1    15 1   
     4     2     7 ar  
     5     2    15 ar  
     6     3    16 1   
     7     3    27 1   
     8     3    28 1   
     9     4     6 1   
    10     4    29 1   
    11     4    30 1   
    12     5    15 ar  
    13     5    17 ar  
    14     5    31 1   
    15     6    16 1   
    16     6    32 1   
    17     6    33 1   
    18     7     8 ar  
    19     7    34 1   
    20     8    17 ar  
    21     8    46 1   
    22     9    12 1   
    23     9    16 1   
    24     9    35 1   
    25    10    11 1   
    26    10    18 1   
    27    10    19 2   
    28    11    24 ar  
    29    11    26 ar  
    30    12    18 1   
    31    12    23 2   
    32    13    24 ar  
    33    13    25 ar  
    34    13    36 1   
    35    14    25 ar  
    36    14    26 ar  
    37    14    37 1   
    38    16    38 1   
    39    17    39 1   
    40    18    21 2   
    41    19    20 1   
    42    19    40 1   
    43    20    21 1   
    44    20    22 1   
    45    22    41 1   
    46    22    42 1   
    47    22    43 1   
    48    24    44 1   
    49    26    45 1   
@<TRIPOS>SUBSTRUCTURE
     1 KAU         1 TEMP              0 ****  ****    0 ROOT
