@<TRIPOS>MOLECULE
KAV
   53    57     1     0     0
SMALL
abcg2


@<TRIPOS>ATOM
      1 C5          -4.9130     0.7200     0.2610 ca         1 KAV       0.353000
      2 C6          -6.2740     0.9520     0.5000 ca         1 KAV      -0.169000
      3 C7          -7.1970    -0.0620     0.3690 ca         1 KAV      -0.025500
      4 C8          -6.7890    -1.3410    -0.0040 ca         1 KAV      -0.236300
      5 C10         -4.5050    -0.5620    -0.1120 ca         1 KAV      -0.169000
      6 C17          0.5040     0.8830    -0.7060 ca         1 KAV      -0.055000
      7 C20          3.6930     0.6560    -0.3040 ca         1 KAV       0.369300
      8 C21          4.8590     0.1180    -0.8240 ca         1 KAV      -0.308000
      9 C22          5.7450    -0.4200     0.1040 ca         1 KAV       0.276900
     10 C24          7.9530    -1.5570     0.3260 c          1 KAV       0.644100
     11 C26          9.0290    -2.0540    -0.5700 cx         1 KAV      -0.257700
     12 C28          9.8180    -3.2580    -0.1230 cx         1 KAV      -0.093900
     13 N2          -2.0540     3.0310     0.4370 na         1 KAV      -0.212600
     14 C3          -2.7190     1.8620     0.2010 cc         1 KAV       0.662700
     15 N4          -4.0590     1.7980     0.4190 nu         1 KAV      -0.903200
     16 C9          -5.4430    -1.5750    -0.2420 ca         1 KAV      -0.025500
     17 C11         -7.8100    -2.4130    -0.1820 c3         1 KAV       0.361300
     18 F12         -7.2740    -3.6380    -0.2110 f          1 KAV      -0.115667
     19 F13         -8.7230    -2.4080     0.8010 f          1 KAV      -0.115667
     20 F14         -8.4970    -2.2670    -1.3290 f          1 KAV      -0.115667
     21 N15         -1.9500     0.8960    -0.2300 nd         1 KAV      -0.624100
     22 C16         -0.6980     1.4530    -0.3030 ca         1 KAV       0.107400
     23 C18          1.6220     1.6950    -0.6980 ca         1 KAV       0.096100
     24 O19          2.8170     1.1750    -1.1690 os         1 KAV      -0.365400
     25 N23          6.9140    -0.9770    -0.3660 ns         1 KAV      -0.324900
     26 O25          8.0010    -1.6530     1.5330 o          1 KAV      -0.523100
     27 C27         10.4550    -1.9200    -0.0930 cx         1 KAV      -0.093900
     28 N29          5.4890    -0.4100     1.4110 nb         1 KAV      -0.209000
     29 C30          4.3440     0.1340     1.7730 ca         1 KAV       0.183900
     30 N31          3.4220     0.6700     0.9900 nb         1 KAV      -0.265000
     31 C32          1.5810     3.0300    -0.3010 ca         1 KAV      -0.095000
     32 C33          0.3850     3.6050     0.1070 ca         1 KAV      -0.100000
     33 C34         -0.7390     2.7960     0.1020 ca         1 KAV      -0.076200
     34 H1          -6.6090     1.9390     0.7930 ha         1 KAV       0.139000
     35 H2          -8.2390     0.1590     0.5630 ha         1 KAV       0.129500
     36 H3          -3.4650    -0.7720    -0.3020 ha         1 KAV       0.139000
     37 H4           0.5610    -0.1510    -1.0240 ha         1 KAV       0.143000
     38 H5           5.0610     0.1150    -1.8860 ha         1 KAV       0.143000
     39 H6           8.8640    -1.9500    -1.6360 hc         1 KAV       0.085700
     40 H7           9.5370    -3.7120     0.8180 hc         1 KAV       0.083950
     41 H8          10.1120    -3.9550    -0.8960 hc         1 KAV       0.083950
     42 H9          -3.1490     4.7970     0.1000 h1         1 KAV       0.053033
     43 H10         -3.2890     4.1150     1.7360 h1         1 KAV       0.053033
     44 H11         -1.8120     4.9210     1.2500 h1         1 KAV       0.053033
     45 H12         -4.5100     2.6590     0.6890 hn         1 KAV       0.500000
     46 H13         -5.0930    -2.5550    -0.5350 ha         1 KAV       0.129500
     47 H14          7.0160    -0.9560    -1.3690 hn         1 KAV       0.156000
     48 H15         11.1930    -1.6800    -0.8460 hc         1 KAV       0.083950
     49 H16         10.6140    -1.4490     0.8680 hc         1 KAV       0.083950
     50 H17          4.1320     0.1420     2.8370 h5         1 KAV       0.054100
     51 H18          2.4840     3.6270    -0.3200 ha         1 KAV       0.128000
     52 H19          0.3520     4.6430     0.4080 ha         1 KAV       0.120000
     53 C1          -2.6150     4.2800     0.8970 c3         1 KAV       0.062900
@<TRIPOS>BOND
     1     1     2 ar  
     2     1     5 ar  
     3     1    15 1   
     4     2     3 ar  
     5     2    34 1   
     6     3     4 ar  
     7     3    35 1   
     8     4    16 ar  
     9     4    17 1   
    10     5    16 ar  
    11     5    36 1   
    12     6    22 ar  
    13     6    23 ar  
    14     6    37 1   
    15     7     8 ar  
    16     7    24 1   
    17     7    30 ar  
    18     8     9 ar  
    19     8    38 1   
    20     9    25 1   
    21     9    28 ar  
    22    10    11 1   
    23    10    25 1   
    24    10    26 2   
    25    11    12 1   
    26    11    27 1   
    27    11    39 1   
    28    12    27 1   
    29    12    40 1   
    30    12    41 1   
    31    13    14 1   
    32    13    33 1   
    33    13    53 1   
    34    14    15 1   
    35    14    21 2   
    36    15    45 1   
    37    16    46 1   
    38    17    18 1   
    39    17    19 1   
    40    17    20 1   
    41    21    22 1   
    42    22    33 ar  
    43    23    24 1   
    44    23    31 ar  
    45    25    47 1   
    46    27    48 1   
    47    27    49 1   
    48    28    29 ar  
    49    29    30 ar  
    50    29    50 1   
    51    31    32 ar  
    52    31    51 1   
    53    32    33 ar  
    54    32    52 1   
    55    42    53 1   
    56    43    53 1   
    57    44    53 1   
@<TRIPOS>SUBSTRUCTURE
     1 KAV         1 TEMP              0 ****  ****    0 ROOT
