@<TRIPOS>MOLECULE
KAV
   53    57     1     0     0
SMALL
No Charge or Current Charge


@<TRIPOS>ATOM
      1 C5          -4.6630     0.6990     0.1760 ca         1 KAV       0.353000
      2 C6          -5.9090     0.7390    -0.4650 ca         1 KAV      -0.169000
      3 C7          -6.6700    -0.4320    -0.6220 ca         1 KAV      -0.025500
      4 C8          -6.1900    -1.6650    -0.1330 ca         1 KAV      -0.236300
      5 C10         -4.1920    -0.5220     0.6850 ca         1 KAV      -0.169000
      6 C17          0.8180     1.5320    -0.1600 ca         1 KAV      -0.055000
      7 C20          3.7390     0.9650     0.2750 ca         1 KAV       0.369300
      8 C21          4.8300     0.3590    -0.3610 ca         1 KAV      -0.308000
      9 C22          5.4090    -0.7570     0.2560 ca         1 KAV       0.276900
     10 C24          7.2370    -2.5190     0.0560 c          1 KAV       0.644100
     11 C26          8.3520    -2.8690    -0.9000 cx         1 KAV      -0.257700
     12 C28          9.7360    -3.1470    -0.3450 cx         1 KAV      -0.093900
     13 N2          -2.0790     3.4360     0.4630 na         1 KAV      -0.212600
     14 C3          -2.6100     2.1590     0.2930 cc         1 KAV       0.662700
     15 N4          -3.9430     1.8790     0.3310 nu         1 KAV      -0.903200
     16 C9          -4.9460    -1.6980     0.5330 ca         1 KAV      -0.025500
     17 C11         -7.0220    -2.9430    -0.2910 c3         1 KAV       0.361300
     18 F12         -6.2510    -4.0520    -0.3690 f          1 KAV      -0.115667
     19 F13         -7.8590    -3.1160     0.7550 f          1 KAV      -0.115667
     20 F14         -7.7840    -2.9250    -1.4090 f          1 KAV      -0.115667
     21 N15         -1.6670     1.2470     0.0350 nd         1 KAV      -0.624100
     22 C16         -0.4890     1.9920     0.0540 ca         1 KAV       0.107400
     23 C18          1.8780     2.4670    -0.0980 ca         1 KAV       0.096100
     24 O19          3.1800     2.0740    -0.3180 os         1 KAV      -0.365400
     25 N23          6.5100    -1.4110    -0.3360 ns         1 KAV      -0.324900
     26 O25          7.0190    -3.1760     1.0650 o          1 KAV      -0.523100
     27 C27          9.4760    -1.8720    -1.1120 cx         1 KAV      -0.093900
     28 N29          4.9470    -1.2350     1.4280 nb         1 KAV      -0.209000
     29 C30          3.8990    -0.5800     1.9680 ca         1 KAV       0.183900
     30 N31          3.2740     0.4980     1.4540 nb         1 KAV      -0.265000
     31 C32          1.6130     3.8340     0.1480 ca         1 KAV      -0.095000
     32 C33          0.2910     4.2780     0.3600 ca         1 KAV      -0.100000
     33 C34         -0.7290     3.3170     0.3080 ca         1 KAV      -0.076200
     34 H1          -6.2920     1.6790    -0.8510 ha         1 KAV       0.139000
     35 H2          -7.6350    -0.3740    -1.1240 ha         1 KAV       0.129500
     36 H3          -3.2430    -0.5630     1.2100 ha         1 KAV       0.139000
     37 H4           1.0030     0.4830    -0.3730 ha         1 KAV       0.143000
     38 H5           5.2090     0.7440    -1.3020 ha         1 KAV       0.143000
     39 H6           8.0440    -3.4540    -1.7630 hc         1 KAV       0.085700
     40 H7           9.8870    -3.0670     0.7300 hc         1 KAV       0.083950
     41 H8          10.3340    -3.9160    -0.8300 hc         1 KAV       0.083950
     42 H9          -2.9060     5.2780    -0.1550 h1         1 KAV       0.053033
     43 H10         -3.7280     4.5170     1.2400 h1         1 KAV       0.053033
     44 H11         -2.1440     5.2990     1.4630 h1         1 KAV       0.053033
     45 H12         -4.4980     2.7240     0.2470 hn         1 KAV       0.500000
     46 H13         -4.5600    -2.6310     0.9410 ha         1 KAV       0.129500
     47 H14          6.8220    -0.9910    -1.2010 hn         1 KAV       0.156000
     48 H15          9.8990    -1.7870    -2.1110 hc         1 KAV       0.083950
     49 H16          9.4560    -0.9410    -0.5490 hc         1 KAV       0.083950
     50 H17          3.5220    -0.9590     2.9160 h5         1 KAV       0.054100
     51 H18          2.4340     4.5460     0.1770 ha         1 KAV       0.128000
     52 H19          0.0780     5.3270     0.5520 ha         1 KAV       0.120000
     53 C1          -2.7560     4.7080     0.7700 c3         1 KAV       0.062900
@<TRIPOS>BOND
     1     1     2 ar  
     2     1     5 ar  
     3     1    15 1   
     4     2     3 ar  
     5     2    34 1   
     6     3     4 ar  
     7     3    35 1   
     8     4    16 ar  
     9     4    17 1   
    10     5    16 ar  
    11     5    36 1   
    12     6    22 ar  
    13     6    23 ar  
    14     6    37 1   
    15     7     8 ar  
    16     7    24 1   
    17     7    30 ar  
    18     8     9 ar  
    19     8    38 1   
    20     9    25 1   
    21     9    28 ar  
    22    10    11 1   
    23    10    25 1   
    24    10    26 2   
    25    11    12 1   
    26    11    27 1   
    27    11    39 1   
    28    12    27 1   
    29    12    40 1   
    30    12    41 1   
    31    13    14 1   
    32    13    33 1   
    33    13    53 1   
    34    14    15 1   
    35    14    21 2   
    36    15    45 1   
    37    16    46 1   
    38    17    18 1   
    39    17    19 1   
    40    17    20 1   
    41    21    22 1   
    42    22    33 ar  
    43    23    24 1   
    44    23    31 ar  
    45    25    47 1   
    46    27    48 1   
    47    27    49 1   
    48    28    29 ar  
    49    29    30 ar  
    50    29    50 1   
    51    31    32 ar  
    52    31    51 1   
    53    32    33 ar  
    54    32    52 1   
    55    42    53 1   
    56    43    53 1   
    57    44    53 1   
@<TRIPOS>SUBSTRUCTURE
     1 KAV         1 TEMP              0 ****  ****    0 ROOT
