@<TRIPOS>MOLECULE
KAW
   69    72     1     0     0
SMALL
No Charge or Current Charge


@<TRIPOS>ATOM
      1 CD2         -3.6880     0.4590     1.4320 ca         1 KAW      -0.089800
      2 CE3         -3.1990     1.6970     0.9880 ca         1 KAW      -0.042000
      3 CZ3         -2.0760     2.2350     1.6550 ca         1 KAW      -0.184000
      4 CH2         -1.4790     1.5360     2.7330 ca         1 KAW      -0.120000
      5 CZ2         -1.9910     0.2870     3.1450 ca         1 KAW      -0.147000
      6 CE2         -3.1040    -0.2220     2.4630 ca         1 KAW      -0.052200
      7 NE1         -3.7920    -1.4020     2.6770 na         1 KAW      -0.226700
      8 CD1         -4.8700    -1.5030     1.7710 cc         1 KAW      -0.160100
      9 CG          -4.8070    -0.3490     0.9980 cd         1 KAW      -0.096400
     10 CB          -5.7790     0.0150    -0.0990 c3         1 KAW      -0.019200
     11 CA          -5.5300    -0.7400    -1.4280 c3         1 KAW      -0.034300
     12 C           -6.5490    -0.3040    -2.5220 c          1 KAW       0.717000
     13 O           -6.4010     0.7880    -3.0570 o          1 KAW      -0.722500
     14 OXT         -7.4090    -1.1050    -2.8620 o          1 KAW      -0.722500
     15 N           -4.1370    -0.5630    -1.9080 ns         1 KAW      -0.453900
     16 CBC         -3.1300    -1.4970    -1.7940 c          1 KAW       0.593100
     17 OAA         -3.3220    -2.6280    -1.3670 o          1 KAW      -0.658100
     18 CAV         -1.7570    -1.0340    -2.2970 c3         1 KAW      -0.152400
     19 CAW         -0.7560    -0.8450    -1.1170 c3         1 KAW      -0.124400
     20 CBM          0.6880    -0.4020    -1.4940 c3         1 KAW       0.402000
     21 OAE          1.1790    -1.2660    -2.4920 oh         1 KAW      -0.659500
     22 OAF          0.6490     0.8690    -2.1050 oh         1 KAW      -0.659500
     23 CBL          1.6960    -0.3860    -0.2760 c3         1 KAW       0.059700
     24 CAX          1.1360     0.3200     0.9900 c3         1 KAW      -0.048100
     25 CBF          2.1730     0.5100     2.0940 ca         1 KAW      -0.069300
     26 CAO          2.5970     1.8040     2.4580 ca         1 KAW      -0.107500
     27 CAI          3.5630     1.9760     3.4640 ca         1 KAW      -0.110000
     28 CAG          4.1090     0.8570     4.1140 ca         1 KAW      -0.115000
     29 CAJ          3.6880    -0.4350     3.7580 ca         1 KAW      -0.110000
     30 CAP          2.7220    -0.6080     2.7520 ca         1 KAW      -0.107500
     31 NBA          3.0150     0.2050    -0.5970 ns         1 KAW      -0.479900
     32 CBE          3.9880    -0.3630    -1.3850 c          1 KAW       0.619700
     33 OAC          3.7780    -1.4160    -1.9710 o          1 KAW      -0.623100
     34 CBG          5.3060     0.3760    -1.4830 ca         1 KAW      -0.139600
     35 CAQ          6.3170    -0.1210    -2.3390 ca         1 KAW      -0.070500
     36 CAK          7.5520     0.5400    -2.4520 ca         1 KAW      -0.123500
     37 CAH          7.7990     1.7050    -1.7100 ca         1 KAW      -0.097000
     38 CAL          6.8080     2.2080    -0.8530 ca         1 KAW      -0.123500
     39 CAR          5.5700     1.5520    -0.7370 ca         1 KAW      -0.070500
     40 HE3         -3.6690     2.2280     0.1640 ha         1 KAW       0.127000
     41 HZ3         -1.6700     3.1930     1.3410 ha         1 KAW       0.106000
     42 HH2         -0.6150     1.9600     3.2410 ha         1 KAW       0.095000
     43 HZ2         -1.5360    -0.2610     3.9670 ha         1 KAW       0.102000
     44 HNE1        -3.5540    -2.0880     3.3860 hn         1 KAW       0.338000
     45 HD1         -5.5600    -2.3410     1.7530 h4         1 KAW       0.213000
     46 HB          -6.8030    -0.1950     0.2350 hc         1 KAW       0.053700
     47 HBA         -5.7430     1.0940    -0.2890 hc         1 KAW       0.053700
     48 HA          -5.7020    -1.8080    -1.2450 h1         1 KAW       0.066700
     49 HN          -3.8880     0.3290    -2.3200 hn         1 KAW       0.322500
     50 HAV         -1.3690    -1.8050    -2.9730 hc         1 KAW       0.063700
     51 HAVA        -1.8620    -0.0890    -2.8410 hc         1 KAW       0.063700
     52 HAW         -1.1890    -0.1120    -0.4260 hc         1 KAW       0.061700
     53 HAWA        -0.6910    -1.7890    -0.5610 hc         1 KAW       0.061700
     54 HBL          1.8750    -1.4330     0.0060 h1         1 KAW       0.080700
     55 HAX          0.7160     1.2900     0.6980 hc         1 KAW       0.064700
     56 HAXA         0.3020    -0.2690     1.3880 hc         1 KAW       0.064700
     57 HAO          2.1800     2.6780     1.9610 ha         1 KAW       0.112500
     58 HAI          3.8880     2.9770     3.7390 ha         1 KAW       0.108500
     59 HAG          4.8570     0.9910     4.8920 ha         1 KAW       0.107000
     60 HAJ          4.1090    -1.3020     4.2610 ha         1 KAW       0.108500
     61 HAP          2.4020    -1.6120     2.4820 ha         1 KAW       0.112500
     62 HNBA         3.2490     1.0850    -0.1600 hn         1 KAW       0.322500
     63 HAQ          6.1460    -1.0230    -2.9230 ha         1 KAW       0.126000
     64 HAK          8.3190     0.1470    -3.1150 ha         1 KAW       0.111500
     65 HAH          8.7560     2.2150    -1.7970 ha         1 KAW       0.108000
     66 HAL          7.0000     3.1100    -0.2750 ha         1 KAW       0.111500
     67 HAR          4.8320     1.9700    -0.0570 ha         1 KAW       0.126000
     68 H29         -0.1080     0.8320    -2.7210 ho         1 KAW       0.470500
     69 H30          2.1580    -1.3100    -2.3320 ho         1 KAW       0.470500
@<TRIPOS>BOND
     1     1     2 ar  
     2     1     6 ar  
     3     1     9 1   
     4     2     3 ar  
     5     2    40 1   
     6     3     4 ar  
     7     3    41 1   
     8     4     5 ar  
     9     4    42 1   
    10     5     6 ar  
    11     5    43 1   
    12     6     7 1   
    13     7     8 1   
    14     7    44 1   
    15     8     9 2   
    16     8    45 1   
    17     9    10 1   
    18    10    11 1   
    19    10    46 1   
    20    10    47 1   
    21    11    12 1   
    22    11    15 1   
    23    11    48 1   
    24    12    13 1   
    25    12    14 1   
    26    15    16 1   
    27    15    49 1   
    28    16    17 2   
    29    16    18 1   
    30    18    19 1   
    31    18    50 1   
    32    18    51 1   
    33    19    20 1   
    34    19    52 1   
    35    19    53 1   
    36    20    21 1   
    37    20    22 1   
    38    20    23 1   
    39    21    69 1   
    40    22    68 1   
    41    23    24 1   
    42    23    31 1   
    43    23    54 1   
    44    24    25 1   
    45    24    55 1   
    46    24    56 1   
    47    25    26 ar  
    48    25    30 ar  
    49    26    27 ar  
    50    26    57 1   
    51    27    28 ar  
    52    27    58 1   
    53    28    29 ar  
    54    28    59 1   
    55    29    30 ar  
    56    29    60 1   
    57    30    61 1   
    58    31    32 1   
    59    31    62 1   
    60    32    33 2   
    61    32    34 1   
    62    34    35 ar  
    63    34    39 ar  
    64    35    36 ar  
    65    35    63 1   
    66    36    37 ar  
    67    36    64 1   
    68    37    38 ar  
    69    37    65 1   
    70    38    39 ar  
    71    38    66 1   
    72    39    67 1   
@<TRIPOS>SUBSTRUCTURE
     1 KAW         1 TEMP              0 ****  ****    0 ROOT
