@<TRIPOS>MOLECULE
KAW
   69    72     1     0     0
SMALL
bcc


@<TRIPOS>ATOM
      1 CD2         -3.9210     0.7730     0.8120 ca         1 KAW      -0.089800
      2 CE3         -3.4720     1.7940    -0.0320 ca         1 KAW      -0.060000
      3 CZ3         -2.3870     2.5610     0.3540 ca         1 KAW      -0.202000
      4 CH2         -1.7260     2.3200     1.5710 ca         1 KAW      -0.138000
      5 CZ2         -2.1390     1.3120     2.4220 ca         1 KAW      -0.165000
      6 CE2         -3.2380     0.5490     2.0310 ca         1 KAW      -0.052200
      7 NE1         -3.8710    -0.4770     2.6630 na         1 KAW      -0.176400
      8 CD1         -4.9230    -0.9000     1.8990 cc         1 KAW      -0.110100
      9 CG          -5.0000    -0.1700     0.7480 cd         1 KAW      -0.096400
     10 CB          -5.9570    -0.3680    -0.3790 c3         1 KAW      -0.019200
     11 CA          -5.4140    -1.3030    -1.4840 c3         1 KAW      -0.034300
     12 C           -6.3800    -1.2840    -2.6900 c          1 KAW       0.927600
     13 O           -5.9650    -0.7820    -3.7520 o          1 KAW      -0.827800
     14 OXT         -7.5120    -1.7520    -2.4690 o          1 KAW      -0.827800
     15 N           -4.0790    -0.9260    -1.8690 ns         1 KAW      -0.520900
     16 CBC         -2.9570    -1.4460    -1.3530 c          1 KAW       0.660100
     17 OAA         -2.9430    -2.3920    -0.5740 o          1 KAW      -0.658100
     18 CAV         -1.6740    -0.7950    -1.8290 c3         1 KAW      -0.152400
     19 CAW         -0.6490    -0.7300    -0.7040 c3         1 KAW      -0.124400
     20 CBM          0.6150     0.0540    -1.0790 c3         1 KAW       0.355600
     21 OAE          1.0750    -0.3110    -2.3490 oh         1 KAW      -0.597300
     22 OAF          0.3540     1.4230    -1.2050 oh         1 KAW      -0.597300
     23 CBL          1.7420    -0.1820    -0.0380 c3         1 KAW       0.059700
     24 CAX          1.3790     0.2980     1.3710 c3         1 KAW      -0.048100
     25 CBF          2.4740     0.0070     2.3590 ca         1 KAW      -0.069300
     26 CAO          3.3360     1.0090     2.7940 ca         1 KAW      -0.125500
     27 CAI          4.3670     0.7280     3.6810 ca         1 KAW      -0.128000
     28 CAG          4.5490    -0.5660     4.1500 ca         1 KAW      -0.133000
     29 CAJ          3.6900    -1.5740     3.7280 ca         1 KAW      -0.128000
     30 CAP          2.6630    -1.2870     2.8410 ca         1 KAW      -0.125500
     31 NBA          2.9700     0.4540    -0.4540 ns         1 KAW      -0.546900
     32 CBE          3.9420    -0.1680    -1.1390 c          1 KAW       0.686700
     33 OAC          3.8420    -1.3140    -1.5640 o          1 KAW      -0.623100
     34 CBG          5.1860     0.6270    -1.3560 ca         1 KAW      -0.139600
     35 CAQ          5.9040     0.4340    -2.5350 ca         1 KAW      -0.088500
     36 CAK          7.0690     1.1470    -2.7670 ca         1 KAW      -0.141500
     37 CAH          7.5420     2.0390    -1.8120 ca         1 KAW      -0.115000
     38 CAL          6.8440     2.2180    -0.6250 ca         1 KAW      -0.141500
     39 CAR          5.6670     1.5180    -0.3990 ca         1 KAW      -0.088500
     40 HE3         -3.9680     1.9960    -0.9740 ha         1 KAW       0.145000
     41 HZ3         -2.0510     3.3730    -0.2800 ha         1 KAW       0.124000
     42 HH2         -0.8820     2.9380     1.8510 ha         1 KAW       0.113000
     43 HZ2         -1.6300     1.1260     3.3600 ha         1 KAW       0.120000
     44 HNE1        -3.6300    -0.8460     3.5680 hn         1 KAW       0.287700
     45 HD1         -5.5500    -1.7110     2.2360 h4         1 KAW       0.163000
     46 HB          -6.8960    -0.7860    -0.0130 hc         1 KAW       0.053700
     47 HBA         -6.2050     0.6020    -0.8250 hc         1 KAW       0.053700
     48 HA          -5.3730    -2.3150    -1.0780 h1         1 KAW       0.066700
     49 HN          -4.0050    -0.1820    -2.5440 hn         1 KAW       0.322500
     50 HAV         -1.2830    -1.3860    -2.6620 hc         1 KAW       0.063700
     51 HAVA        -1.8790     0.2020    -2.2250 hc         1 KAW       0.063700
     52 HAW         -1.1190    -0.2810     0.1770 hc         1 KAW       0.061700
     53 HAWA        -0.3680    -1.7430    -0.4070 hc         1 KAW       0.061700
     54 HBL          1.9320    -1.2590     0.0080 h1         1 KAW       0.080700
     55 HAX          1.1720     1.3710     1.3530 hc         1 KAW       0.064700
     56 HAXA         0.4600    -0.1930     1.6940 hc         1 KAW       0.064700
     57 HAO          3.1970     2.0250     2.4410 ha         1 KAW       0.130500
     58 HAI          5.0270     1.5220     4.0070 ha         1 KAW       0.126500
     59 HAG          5.3520    -0.7870     4.8410 ha         1 KAW       0.125000
     60 HAJ          3.8190    -2.5840     4.0940 ha         1 KAW       0.126500
     61 HAP          1.9940    -2.0790     2.5220 ha         1 KAW       0.130500
     62 HNBA         3.0650     1.4410    -0.2720 hn         1 KAW       0.322500
     63 HAQ          5.5420    -0.2650    -3.2770 ha         1 KAW       0.144000
     64 HAK          7.6120     1.0060    -3.6920 ha         1 KAW       0.129500
     65 HAH          8.4570     2.5890    -1.9900 ha         1 KAW       0.126000
     66 HAL          7.2180     2.8970     0.1290 ha         1 KAW       0.129500
     67 HAR          5.1480     1.6490     0.5420 ha         1 KAW       0.144000
     68 H29         -0.3920     1.6630    -0.6440 ho         1 KAW       0.431500
     69 H30          1.6170    -1.1070    -2.2830 ho         1 KAW       0.431500
@<TRIPOS>BOND
     1     1     2 ar  
     2     1     6 ar  
     3     1     9 1   
     4     2     3 ar  
     5     2    40 1   
     6     3     4 ar  
     7     3    41 1   
     8     4     5 ar  
     9     4    42 1   
    10     5     6 ar  
    11     5    43 1   
    12     6     7 1   
    13     7     8 1   
    14     7    44 1   
    15     8     9 2   
    16     8    45 1   
    17     9    10 1   
    18    10    11 1   
    19    10    46 1   
    20    10    47 1   
    21    11    12 1   
    22    11    15 1   
    23    11    48 1   
    24    12    13 1   
    25    12    14 1   
    26    15    16 1   
    27    15    49 1   
    28    16    17 2   
    29    16    18 1   
    30    18    19 1   
    31    18    50 1   
    32    18    51 1   
    33    19    20 1   
    34    19    52 1   
    35    19    53 1   
    36    20    21 1   
    37    20    22 1   
    38    20    23 1   
    39    21    69 1   
    40    22    68 1   
    41    23    24 1   
    42    23    31 1   
    43    23    54 1   
    44    24    25 1   
    45    24    55 1   
    46    24    56 1   
    47    25    26 ar  
    48    25    30 ar  
    49    26    27 ar  
    50    26    57 1   
    51    27    28 ar  
    52    27    58 1   
    53    28    29 ar  
    54    28    59 1   
    55    29    30 ar  
    56    29    60 1   
    57    30    61 1   
    58    31    32 1   
    59    31    62 1   
    60    32    33 2   
    61    32    34 1   
    62    34    35 ar  
    63    34    39 ar  
    64    35    36 ar  
    65    35    63 1   
    66    36    37 ar  
    67    36    64 1   
    68    37    38 ar  
    69    37    65 1   
    70    38    39 ar  
    71    38    66 1   
    72    39    67 1   
@<TRIPOS>SUBSTRUCTURE
     1 KAW         1 TEMP              0 ****  ****    0 ROOT
