@<TRIPOS>MOLECULE
KAX
   66    72     1     0     0
SMALL
No Charge or Current Charge


@<TRIPOS>ATOM
      1 C12         40.3700    35.9820    -0.3910 ca         1 KAX       0.152900
      2 C14         38.6440    34.8610    -1.3950 ca         1 KAX       0.107500
      3 C15         38.4310    35.9350    -2.2210 ca         1 KAX      -0.072600
      4 C16         39.2680    37.0640    -2.0790 ca         1 KAX       0.431900
      5 C18         36.9580    34.4770    -2.8040 cc         1 KAX       0.435700
      6 C2          35.2100    40.4600     3.2270 ca         1 KAX       0.141900
      7 C21         33.2320    38.0820     0.0020 c5         1 KAX       0.315300
      8 C22         32.9250    37.2220    -1.2490 c5         1 KAX      -0.153400
      9 C23         33.0030    35.8020    -0.6340 c5         1 KAX       0.210300
     10 C24         32.3480    36.0270     0.7640 c5         1 KAX       0.138300
     11 C25         32.9180    35.1600     1.9220 c3         1 KAX       0.241600
     12 C31         37.5400    32.5910    -1.1250 c5         1 KAX       0.054300
     13 C32         37.1760    32.6530     0.3890 c5         1 KAX       0.146300
     14 C33         35.6670    33.0290     0.2630 c5         1 KAX       0.219300
     15 C34         35.1480    31.9510    -0.7330 c5         1 KAX      -0.084700
     16 C35         33.8200    32.3090    -1.4400 c3         1 KAX       0.243600
     17 C36         36.3790    31.6870    -1.6770 c5         1 KAX      -0.078400
     18 C4          35.0710    38.9960     1.4720 ca         1 KAX       0.105500
     19 C5          36.4350    38.8420     1.4950 ca         1 KAX      -0.077600
     20 C6          37.1700    39.5590     2.4630 ca         1 KAX       0.421900
     21 C8          35.7530    37.5900    -0.1180 cc         1 KAX       0.465700
     22 F32         37.3800    31.4120     1.0150 f          1 KAX      -0.267000
     23 N1          36.5590    40.3770     3.3350 nb         1 KAX      -0.334000
     24 N11         40.2440    37.0930    -1.1580 nb         1 KAX      -0.331000
     25 N13         39.6190    34.8570    -0.4630 nb         1 KAX      -0.201000
     26 N16         39.1520    38.1730    -2.8570 nv         1 KAX      -1.063900
     27 N17         37.3760    35.7210    -3.1100 nd         1 KAX      -0.567100
     28 N19         37.7090    33.9250    -1.7480 na         1 KAX      -0.269300
     29 N3          34.4270    39.8100     2.3330 nb         1 KAX      -0.209000
     30 N6          38.5240    39.4870     2.5670 nv         1 KAX      -1.070900
     31 N7          36.8870    37.9690     0.5030 nd         1 KAX      -0.573100
     32 N9          34.6260    38.2070     0.4480 na         1 KAX      -0.284300
     33 O23         32.1710    34.8870    -1.3830 os         1 KAX      -0.587400
     34 O24         32.4510    37.4520     1.0390 os         1 KAX      -0.449000
     35 O25         34.3530    35.2010     1.9190 os         1 KAX      -0.623400
     36 O33         34.9510    32.8700     1.5130 os         1 KAX      -0.581400
     37 O35         34.0220    33.5100    -2.1850 os         1 KAX      -0.637400
     38 P25         35.1510    34.0060     2.6430 p5         1 KAX       1.401800
     39 P35         32.7470    34.2970    -2.7710 p5         1 KAX       1.404800
     40 O25A        34.4870    33.6210     3.9230 o          1 KAX      -0.812500
     41 O25B        36.5840    34.3550     2.8550 o          1 KAX      -0.812500
     42 O35A        31.7810    33.3540    -3.4050 o          1 KAX      -0.815500
     43 O35B        33.1660    35.3710    -3.7150 o          1 KAX      -0.815500
     44 H1          41.1600    35.9930     0.3580 h5         1 KAX       0.024100
     45 H2          36.1550    33.9470    -3.3010 h5         1 KAX       0.121800
     46 H4          32.8870    39.1130    -0.1490 h2         1 KAX       0.078700
     47 H5          33.6380    37.3910    -2.0610 hc         1 KAX       0.085200
     48 H6          31.9230    37.4420    -1.6340 hc         1 KAX       0.085200
     49 H7          34.0310    35.4320    -0.5640 h1         1 KAX       0.050700
     50 H8          31.2750    35.8030     0.7040 h1         1 KAX       0.050700
     51 H9          32.5210    35.5300     2.8760 h1         1 KAX       0.031700
     52 H10         32.5590    34.1310     1.7840 h1         1 KAX       0.031700
     53 H11         38.4940    32.0600    -1.2450 h1         1 KAX       0.077700
     54 H12         37.7670    33.4090     0.9190 h1         1 KAX       0.117700
     55 H13         35.5450    34.0490    -0.1200 h1         1 KAX       0.040700
     56 H14         34.9300    31.0280    -0.1820 hc         1 KAX       0.061700
     57 H15         33.0340    32.4400    -0.6830 h1         1 KAX       0.028200
     58 H16         33.5290    31.4840    -2.1030 h1         1 KAX       0.028200
     59 H17         36.1620    31.8560    -2.7360 hc         1 KAX       0.053200
     60 H18         36.6670    30.6310    -1.6120 hc         1 KAX       0.053200
     61 H19         35.6940    36.9150    -0.9640 h5         1 KAX       0.121800
     62 H20         39.5700    39.0350    -2.5190 hn         1 KAX       0.491000
     63 H21         38.3080    38.2600    -3.4170 hn         1 KAX       0.491000
     64 H22         39.0060    40.2270     3.0690 hn         1 KAX       0.494500
     65 H23         39.0240    39.0480     1.7980 hn         1 KAX       0.494500
     66 H3          34.7040    41.1200     3.9280 h5         1 KAX       0.022100
@<TRIPOS>BOND
     1     1    24 ar  
     2     1    25 ar  
     3     1    44 1   
     4     2     3 ar  
     5     2    25 ar  
     6     2    28 1   
     7     3     4 ar  
     8     3    27 1   
     9     4    24 ar  
    10     4    26 1   
    11     5    27 2   
    12     5    28 1   
    13     5    45 1   
    14     6    23 ar  
    15     6    29 ar  
    16     6    66 1   
    17     7     8 1   
    18     7    32 1   
    19     7    34 1   
    20     7    46 1   
    21     8     9 1   
    22     8    47 1   
    23     8    48 1   
    24     9    10 1   
    25     9    33 1   
    26     9    49 1   
    27    10    11 1   
    28    10    34 1   
    29    10    50 1   
    30    11    35 1   
    31    11    51 1   
    32    11    52 1   
    33    12    13 1   
    34    12    17 1   
    35    12    28 1   
    36    12    53 1   
    37    13    14 1   
    38    13    22 1   
    39    13    54 1   
    40    14    15 1   
    41    14    36 1   
    42    14    55 1   
    43    15    16 1   
    44    15    17 1   
    45    15    56 1   
    46    16    37 1   
    47    16    57 1   
    48    16    58 1   
    49    17    59 1   
    50    17    60 1   
    51    18    19 ar  
    52    18    29 ar  
    53    18    32 1   
    54    19    20 ar  
    55    19    31 1   
    56    20    23 ar  
    57    20    30 1   
    58    21    31 2   
    59    21    32 1   
    60    21    61 1   
    61    26    62 1   
    62    26    63 1   
    63    30    64 1   
    64    30    65 1   
    65    33    39 1   
    66    35    38 1   
    67    36    38 1   
    68    37    39 1   
    69    38    40 1   
    70    38    41 1   
    71    39    42 1   
    72    39    43 1   
@<TRIPOS>SUBSTRUCTURE
     1 KAX         1 TEMP              0 ****  ****    0 ROOT
