@<TRIPOS>MOLECULE
KAX
   66    72     1     0     0
SMALL
abcg2


@<TRIPOS>ATOM
      1 C12         40.5800    36.0170    -0.4070 ca         1 KAX       0.152900
      2 C14         38.6150    35.3270    -1.1060 ca         1 KAX       0.107500
      3 C15         38.2310    36.6080    -1.4700 ca         1 KAX      -0.072600
      4 C16         39.1740    37.6270    -1.2600 ca         1 KAX       0.431900
      5 C18         36.5910    35.3600    -1.9210 cc         1 KAX       0.435700
      6 C2          35.9660    41.0850     0.5550 ca         1 KAX       0.141900
      7 C21         33.3350    37.6440     0.7090 c5         1 KAX       0.315300
      8 C22         33.0170    37.0570    -0.6640 c5         1 KAX      -0.153400
      9 C23         32.8570    35.5750    -0.3550 c5         1 KAX       0.210300
     10 C24         32.2470    35.6110     1.0450 c5         1 KAX       0.138300
     11 C25         32.5160    34.3880     1.8990 c3         1 KAX       0.241600
     12 C31         37.5100    33.0870    -1.1930 c5         1 KAX       0.054300
     13 C32         37.0510    32.7690     0.2310 c5         1 KAX       0.146300
     14 C33         35.5350    32.7630     0.1070 c5         1 KAX       0.219300
     15 C34         35.2820    32.0070    -1.2030 c5         1 KAX      -0.084700
     16 C35         33.9310    32.2850    -1.8390 c3         1 KAX       0.243600
     17 C36         36.5020    32.3410    -2.0900 c5         1 KAX      -0.078400
     18 C4          35.4610    38.9710     0.8740 ca         1 KAX       0.105500
     19 C5          36.7560    38.6610     1.2610 ca         1 KAX      -0.077600
     20 C6          37.6710    39.7270     1.2900 ca         1 KAX       0.421900
     21 C8          35.6660    36.8570     1.3860 cc         1 KAX       0.465700
     22 F32         37.4910    31.4830     0.5290 f          1 KAX      -0.267000
     23 N1          37.2380    40.9370     0.9180 nb         1 KAX      -0.334000
     24 N11         40.3470    37.2930    -0.7130 nb         1 KAX      -0.331000
     25 N13         39.7830    34.9750    -0.5710 nb         1 KAX      -0.201000
     26 N16         38.9540    38.8990    -1.6140 nv         1 KAX      -1.063900
     27 N17         36.9600    36.6080    -1.9760 nd         1 KAX      -0.567100
     28 N19         37.5510    34.5260    -1.4120 na         1 KAX      -0.269300
     29 N3          35.0130    40.1700     0.5050 nb         1 KAX      -0.209000
     30 N6          38.9360    39.5860     1.7020 nv         1 KAX      -1.070900
     31 N7          36.8620    37.3330     1.5770 nd         1 KAX      -0.573100
     32 N9          34.7650    37.8000     0.9660 na         1 KAX      -0.284300
     33 O23         32.0140    34.8370    -1.2020 os         1 KAX      -0.587400
     34 O24         32.7900    36.7720     1.6600 os         1 KAX      -0.449000
     35 O25         33.8930    34.3180     2.1840 os         1 KAX      -0.623400
     36 O33         34.8240    32.1730     1.1630 os         1 KAX      -0.581400
     37 O35         33.9140    33.6000    -2.3570 os         1 KAX      -0.637400
     38 P25         34.6600    32.9330     2.6200 p5         1 KAX       1.401800
     39 P35         32.5170    34.3900    -2.7120 p5         1 KAX       1.404800
     40 O25A        33.7550    32.0540     3.4170 o          1 KAX      -0.812500
     41 O25B        35.9970    33.3910     3.1090 o          1 KAX      -0.812500
     42 O35A        31.4870    33.4290    -3.2040 o          1 KAX      -0.815500
     43 O35B        32.9400    35.5990    -3.4810 o          1 KAX      -0.815500
     44 H1          41.5500    35.8130     0.0320 h5         1 KAX       0.024100
     45 H2          35.6290    34.9880    -2.2380 h5         1 KAX       0.121800
     46 H4          32.9140    38.6450     0.8240 h2         1 KAX       0.078700
     47 H5          33.7870    37.2780    -1.4000 hc         1 KAX       0.085200
     48 H6          32.0710    37.4680    -1.0240 hc         1 KAX       0.085200
     49 H7          33.8480    35.1150    -0.3040 h1         1 KAX       0.050700
     50 H8          31.1580    35.7160     0.9470 h1         1 KAX       0.050700
     51 H9          31.9370    34.4470     2.8260 h1         1 KAX       0.031700
     52 H10         32.1510    33.5140     1.3470 h1         1 KAX       0.031700
     53 H11         38.5280    32.7290    -1.3470 h1         1 KAX       0.077700
     54 H12         37.4440    33.4480     0.9860 h1         1 KAX       0.117700
     55 H13         35.2400    33.8110    -0.0230 h1         1 KAX       0.040700
     56 H14         35.2960    30.9380    -0.9690 hc         1 KAX       0.061700
     57 H15         33.1440    32.1340    -1.0900 h1         1 KAX       0.028200
     58 H16         33.7530    31.5630    -2.6420 h1         1 KAX       0.028200
     59 H17         36.2400    32.9200    -2.9740 hc         1 KAX       0.053200
     60 H18         36.9690    31.4270    -2.4530 hc         1 KAX       0.053200
     61 H19         35.3770    35.8330     1.5620 h5         1 KAX       0.121800
     62 H20         39.5870    39.6110    -1.2940 hn         1 KAX       0.491000
     63 H21         38.0260    39.1940    -1.8670 hn         1 KAX       0.491000
     64 H22         39.5800    40.3510     1.5970 hn         1 KAX       0.494500
     65 H23         39.3210    38.6700     1.8550 hn         1 KAX       0.494500
     66 H3          35.6790    42.0900     0.2640 h5         1 KAX       0.022100
@<TRIPOS>BOND
     1     1    24 ar  
     2     1    25 ar  
     3     1    44 1   
     4     2     3 ar  
     5     2    25 ar  
     6     2    28 1   
     7     3     4 ar  
     8     3    27 1   
     9     4    24 ar  
    10     4    26 1   
    11     5    27 2   
    12     5    28 1   
    13     5    45 1   
    14     6    23 ar  
    15     6    29 ar  
    16     6    66 1   
    17     7     8 1   
    18     7    32 1   
    19     7    34 1   
    20     7    46 1   
    21     8     9 1   
    22     8    47 1   
    23     8    48 1   
    24     9    10 1   
    25     9    33 1   
    26     9    49 1   
    27    10    11 1   
    28    10    34 1   
    29    10    50 1   
    30    11    35 1   
    31    11    51 1   
    32    11    52 1   
    33    12    13 1   
    34    12    17 1   
    35    12    28 1   
    36    12    53 1   
    37    13    14 1   
    38    13    22 1   
    39    13    54 1   
    40    14    15 1   
    41    14    36 1   
    42    14    55 1   
    43    15    16 1   
    44    15    17 1   
    45    15    56 1   
    46    16    37 1   
    47    16    57 1   
    48    16    58 1   
    49    17    59 1   
    50    17    60 1   
    51    18    19 ar  
    52    18    29 ar  
    53    18    32 1   
    54    19    20 ar  
    55    19    31 1   
    56    20    23 ar  
    57    20    30 1   
    58    21    31 2   
    59    21    32 1   
    60    21    61 1   
    61    26    62 1   
    62    26    63 1   
    63    30    64 1   
    64    30    65 1   
    65    33    39 1   
    66    35    38 1   
    67    36    38 1   
    68    37    39 1   
    69    38    40 1   
    70    38    41 1   
    71    39    42 1   
    72    39    43 1   
@<TRIPOS>SUBSTRUCTURE
     1 KAX         1 TEMP              0 ****  ****    0 ROOT
