@<TRIPOS>MOLECULE
KAY
   19    19     1     0     0
SMALL
bcc


@<TRIPOS>ATOM
      1 C10         -0.7970     1.6870     0.1820 c          1 KAY       0.953200
      2 C13          1.5300     0.7880     0.0480 ca         1 KAY      -0.134000
      3 C01          3.9540     0.0890     0.0740 c3         1 KAY      -0.013800
      4 C02          2.4860    -0.2240     0.0180 ca         1 KAY      -0.154300
      5 C03          2.0380    -1.5410    -0.0440 ca         1 KAY      -0.187000
      6 C04          0.6790    -1.8210    -0.0670 ca         1 KAY      -0.138000
      7 C05         -0.2740    -0.8050    -0.0410 ca         1 KAY      -0.095600
      8 C06         -1.7400    -1.1680    -0.1830 c          1 KAY       0.938200
      9 C09          0.1620     0.5200     0.0320 ca         1 KAY      -0.087600
     10 O07         -2.4200    -0.4470    -0.9370 o          1 KAY      -0.842800
     11 O08         -2.1270    -2.1850     0.4290 o          1 KAY      -0.842800
     12 O11         -0.6790     2.6190    -0.6370 o          1 KAY      -0.846300
     13 O12         -1.5690     1.6360     1.1580 o          1 KAY      -0.846300
     14 H1           1.8630     1.8190     0.0970 ha         1 KAY       0.105000
     15 H2           4.3520    -0.0650     1.0790 hc         1 KAY       0.003367
     16 H3           4.5250    -0.5530    -0.5980 hc         1 KAY       0.003367
     17 H4           4.1550     1.1240    -0.2000 hc         1 KAY       0.003367
     18 H5           2.7560    -2.3530    -0.0770 ha         1 KAY       0.070000
     19 H6           0.3510    -2.8520    -0.1220 ha         1 KAY       0.111000
@<TRIPOS>BOND
     1     1     9 1   
     2     1    12 1   
     3     1    13 1   
     4     2     4 ar  
     5     2     9 ar  
     6     2    14 1   
     7     3     4 1   
     8     3    15 1   
     9     3    16 1   
    10     3    17 1   
    11     4     5 ar  
    12     5     6 ar  
    13     5    18 1   
    14     6     7 ar  
    15     6    19 1   
    16     7     8 1   
    17     7     9 ar  
    18     8    10 1   
    19     8    11 1   
@<TRIPOS>SUBSTRUCTURE
     1 KAY         1 TEMP              0 ****  ****    0 ROOT
