@<TRIPOS>MOLECULE
KAY
   19    19     1     0     0
SMALL
No Charge or Current Charge


@<TRIPOS>ATOM
      1 C10         -0.8250     1.6770     0.1940 c          1 KAY       0.742600
      2 C13          1.5470     0.8100     0.1030 ca         1 KAY      -0.116000
      3 C01          3.9820     0.0860     0.0750 c3         1 KAY      -0.013800
      4 C02          2.4940    -0.2280     0.0240 ca         1 KAY      -0.154300
      5 C03          2.0520    -1.5560    -0.0880 ca         1 KAY      -0.169000
      6 C04          0.6790    -1.8430    -0.1330 ca         1 KAY      -0.120000
      7 C05         -0.2790    -0.8080    -0.0650 ca         1 KAY      -0.095600
      8 C06         -1.7510    -1.1470    -0.1590 c          1 KAY       0.727600
      9 C09          0.1610     0.5360     0.0650 ca         1 KAY      -0.087600
     10 O07         -2.4080    -0.6340    -1.0550 o          1 KAY      -0.737500
     11 O08         -2.1950    -2.0090     0.5890 o          1 KAY      -0.737500
     12 O11         -0.7040     2.6360    -0.5580 o          1 KAY      -0.741000
     13 O12         -1.6250     1.6500     1.1200 o          1 KAY      -0.741000
     14 H1           1.8850     1.8390     0.2060 ha         1 KAY       0.087000
     15 H2           4.3430     0.0980     1.1110 hc         1 KAY       0.003367
     16 H3           4.5680    -0.6600    -0.4750 hc         1 KAY       0.003367
     17 H4           4.1990     1.0660    -0.3670 hc         1 KAY       0.003367
     18 H5           2.7720    -2.3680    -0.1440 ha         1 KAY       0.052000
     19 H6           0.3510    -2.8760    -0.2330 ha         1 KAY       0.093000
@<TRIPOS>BOND
     1     1     9 1   
     2     1    12 1   
     3     1    13 1   
     4     2     4 ar  
     5     2     9 ar  
     6     2    14 1   
     7     3     4 1   
     8     3    15 1   
     9     3    16 1   
    10     3    17 1   
    11     4     5 ar  
    12     5     6 ar  
    13     5    18 1   
    14     6     7 ar  
    15     6    19 1   
    16     7     8 1   
    17     7     9 ar  
    18     8    10 1   
    19     8    11 1   
@<TRIPOS>SUBSTRUCTURE
     1 KAY         1 TEMP              0 ****  ****    0 ROOT
