@<TRIPOS>MOLECULE
KAZ
   61    64     1     0     0
SMALL
No Charge or Current Charge


@<TRIPOS>ATOM
      1 C1          -1.2710    -1.7730    -1.6930 ca         1 KAZ      -0.129000
      2 C2           0.0470    -1.5850    -1.2540 ca         1 KAZ      -0.092000
      3 C3           0.3510    -0.6340    -0.2530 cp         1 KAZ      -0.073000
      4 C11         -5.7200     0.9470     0.6120 ca         1 KAZ      -0.021000
      5 C12         -6.8780     0.6590    -0.1570 ca         1 KAZ      -0.051300
      6 C13         -8.1280     1.1720     0.2490 ca         1 KAZ      -0.110000
      7 C14         -8.2390     1.9580     1.4060 ca         1 KAZ      -0.141000
      8 C15         -7.1000     2.2340     2.1730 ca         1 KAZ      -0.126000
      9 C16         -5.8490     1.7300     1.7820 ca         1 KAZ      -0.122000
     10 C17         -6.8100    -0.1940    -1.4310 c3         1 KAZ      -0.179100
     11 C18         -6.7280    -1.6830    -1.0610 c          1 KAZ       0.724000
     12 C20          2.6680    -1.5120     0.3060 ca         1 KAZ      -0.107500
     13 C21          3.9900    -1.3190     0.7440 ca         1 KAZ      -0.103000
     14 C22          4.4420    -0.0360     1.1010 ca         1 KAZ      -0.100300
     15 C23          3.5540     1.0530     1.0150 ca         1 KAZ      -0.103000
     16 C24          2.2320     0.8590     0.5780 ca         1 KAZ      -0.107500
     17 C25          5.8790     0.1700     1.5740 c3         1 KAZ       0.222100
     18 C27          8.2860     0.0470     1.0140 c6         1 KAZ       0.169800
     19 C28          9.3450    -0.1700    -0.1160 c6         1 KAZ       0.162800
     20 C30          7.7780     0.7420    -1.7610 c6         1 KAZ       0.162800
     21 C4          -0.7200     0.1180     0.2950 ca         1 KAZ      -0.055000
     22 C5          -2.0580    -0.0650    -0.1270 ca         1 KAZ      -0.138600
     23 C6          -2.3190    -1.0200    -1.1390 ca         1 KAZ      -0.056000
     24 C7           1.7600    -0.4270     0.2140 cp         1 KAZ      -0.011000
     25 C8          -3.1560     0.7740     0.5030 c          1 KAZ       0.611700
     26 N9          -4.4630     0.4110     0.2030 ns         1 KAZ      -0.161000
     27 O10         -2.8810     1.7380     1.2120 o          1 KAZ      -0.645100
     28 O19         -7.7720    -2.2920    -0.8780 o          1 KAZ      -0.719500
     29 N26          6.8830    -0.0080     0.5000 n3         1 KAZ      -0.728600
     30 N29          9.1790     0.7960    -1.2440 n3         1 KAZ      -0.718600
     31 C31          6.7170     0.9570    -0.6330 c6         1 KAZ       0.169800
     32 C32         10.1890     0.6140    -2.3080 c3         1 KAZ       0.154100
     33 O33         -5.6220    -2.1510    -0.8420 o          1 KAZ      -0.719500
     34 H1          -1.4830    -2.5020    -2.4730 ha         1 KAZ       0.115000
     35 H2           0.8420    -2.1720    -1.7090 ha         1 KAZ       0.102000
     36 H3          -9.0220     0.9590    -0.3330 ha         1 KAZ       0.106000
     37 H4          -9.2080     2.3460     1.7100 ha         1 KAZ       0.092000
     38 H5          -7.1860     2.8350     3.0760 ha         1 KAZ       0.092000
     39 H6          -4.9920     1.9440     2.4130 ha         1 KAZ       0.119000
     40 H7          -7.7280    -0.0090    -2.0010 hc         1 KAZ       0.037700
     41 H8          -5.9130     0.1090    -1.9840 hc         1 KAZ       0.037700
     42 H9           2.3420    -2.5160     0.0480 ha         1 KAZ       0.118500
     43 H10          4.6670    -2.1680     0.8050 ha         1 KAZ       0.112500
     44 H11          3.8890     2.0530     1.2820 ha         1 KAZ       0.112500
     45 H12          1.5720     1.7200     0.5070 ha         1 KAZ       0.118500
     46 H13          5.9740     1.1720     2.0130 h1         1 KAZ       0.034700
     47 H14          6.0720    -0.5490     2.3820 h1         1 KAZ       0.034700
     48 H17         10.3500    -0.0750     0.3220 h1         1 KAZ       0.035700
     49 H18          9.2540    -1.2020    -0.4860 h1         1 KAZ       0.035700
     50 H19          7.6270     1.5090    -2.5350 h1         1 KAZ       0.035700
     51 H20          7.5880    -0.2330    -2.2350 h1         1 KAZ       0.035700
     52 H21         -0.5040     0.8410     1.0780 ha         1 KAZ       0.130000
     53 H22         -3.3220    -1.1850    -1.5220 ha         1 KAZ       0.161000
     54 H23         -4.5470    -0.4080    -0.3860 hn         1 KAZ       0.237000
     55 H27          6.8040     1.9900    -0.2640 h1         1 KAZ       0.038700
     56 H28          5.7170     0.8600    -1.0790 h1         1 KAZ       0.038700
     57 H29         10.0970    -0.3790    -2.7700 h1         1 KAZ       0.027700
     58 H30         10.0660     1.3720    -3.0930 h1         1 KAZ       0.027700
     59 H31         11.2040     0.7100    -1.8990 h1         1 KAZ       0.027700
     60 H15          8.4380    -0.7200     1.7880 h1         1 KAZ       0.038700
     61 H16          8.4770     1.0220     1.4870 h1         1 KAZ       0.038700
@<TRIPOS>BOND
     1     1     2 ar  
     2     1    23 ar  
     3     1    34 1   
     4     2     3 ar  
     5     2    35 1   
     6     3    21 ar  
     7     3    24 1   
     8     4     5 ar  
     9     4     9 ar  
    10     4    26 1   
    11     5     6 ar  
    12     5    10 1   
    13     6     7 ar  
    14     6    36 1   
    15     7     8 ar  
    16     7    37 1   
    17     8     9 ar  
    18     8    38 1   
    19     9    39 1   
    20    10    11 1   
    21    10    40 1   
    22    10    41 1   
    23    11    28 1   
    24    11    33 1   
    25    12    13 ar  
    26    12    24 ar  
    27    12    42 1   
    28    13    14 ar  
    29    13    43 1   
    30    14    15 ar  
    31    14    17 1   
    32    15    16 ar  
    33    15    44 1   
    34    16    24 ar  
    35    16    45 1   
    36    17    29 1   
    37    17    46 1   
    38    17    47 1   
    39    18    19 1   
    40    18    29 1   
    41    18    60 1   
    42    18    61 1   
    43    19    30 1   
    44    19    48 1   
    45    19    49 1   
    46    20    30 1   
    47    20    31 1   
    48    20    50 1   
    49    20    51 1   
    50    21    22 ar  
    51    21    52 1   
    52    22    23 ar  
    53    22    25 1   
    54    23    53 1   
    55    25    26 1   
    56    25    27 2   
    57    26    54 1   
    58    29    31 1   
    59    30    32 1   
    60    31    55 1   
    61    31    56 1   
    62    32    57 1   
    63    32    58 1   
    64    32    59 1   
@<TRIPOS>SUBSTRUCTURE
     1 KAZ         1 TEMP              0 ****  ****    0 ROOT
