@<TRIPOS>MOLECULE
KAZ
   61    64     1     0     0
SMALL
abcg2


@<TRIPOS>ATOM
      1 C1          -1.2120    -1.3240    -2.0840 ca         1 KAZ      -0.129000
      2 C2           0.0810    -1.0070    -1.6990 ca         1 KAZ      -0.092000
      3 C3           0.3110    -0.1580    -0.6150 cp         1 KAZ      -0.073000
      4 C11         -5.6030     0.4940     0.9600 ca         1 KAZ      -0.021000
      5 C12         -6.7710     0.4330     0.1840 ca         1 KAZ      -0.051300
      6 C13         -7.9760     0.7940     0.7790 ca         1 KAZ      -0.110000
      7 C14         -8.0390     1.2280     2.0950 ca         1 KAZ      -0.141000
      8 C15         -6.8740     1.3000     2.8450 ca         1 KAZ      -0.126000
      9 C16         -5.6610     0.9300     2.2820 ca         1 KAZ      -0.122000
     10 C17         -6.7480     0.0220    -1.2640 c3         1 KAZ      -0.179100
     11 C18         -6.5450    -1.4920    -1.4930 c          1 KAZ       0.724000
     12 C20          2.6990    -0.7870    -0.2440 ca         1 KAZ      -0.107500
     13 C21          3.9880    -0.4880     0.1680 ca         1 KAZ      -0.103000
     14 C22          4.3100     0.7800     0.6430 ca         1 KAZ      -0.100300
     15 C23          3.3070     1.7430     0.6800 ca         1 KAZ      -0.103000
     16 C24          2.0140     1.4460     0.2750 ca         1 KAZ      -0.107500
     17 C25          5.6920     1.0840     1.1600 c3         1 KAZ       0.222100
     18 C27          7.9750     0.3100     1.1510 c6         1 KAZ       0.169800
     19 C28          8.9770    -0.5190     0.3710 c6         1 KAZ       0.162800
     20 C30          7.9660     0.1730    -1.6680 c6         1 KAZ       0.162800
     21 C4          -0.7890     0.3640     0.0610 ca         1 KAZ      -0.055000
     22 C5          -2.0910     0.0420    -0.3100 ca         1 KAZ      -0.138600
     23 C6          -2.2990    -0.8080    -1.3950 ca         1 KAZ      -0.056000
     24 C7           1.6860     0.1730    -0.1910 cp         1 KAZ      -0.011000
     25 C8          -3.2070     0.6600     0.4790 c          1 KAZ       0.611700
     26 N9          -4.4050     0.0540     0.3720 ns         1 KAZ      -0.161000
     27 O10         -3.0040     1.6510     1.1670 o          1 KAZ      -0.645100
     28 O19         -7.3940    -2.0990    -2.1550 o          1 KAZ      -0.719500
     29 N26          6.7280     0.4030     0.4190 n3         1 KAZ      -0.728600
     30 N29          9.2110     0.0610    -0.9360 n3         1 KAZ      -0.718600
     31 C31          6.9520     0.9880    -0.8880 c6         1 KAZ       0.169800
     32 C32         10.1990    -0.6840    -1.6810 c3         1 KAZ       0.154100
     33 O33         -5.5040    -1.9960    -0.9900 o          1 KAZ      -0.719500
     34 H1          -1.3750    -1.9710    -2.9360 ha         1 KAZ       0.115000
     35 H2           0.9160    -1.4070    -2.2600 ha         1 KAZ       0.102000
     36 H3          -8.8830     0.7470     0.1880 ha         1 KAZ       0.106000
     37 H4          -8.9890     1.5090     2.5300 ha         1 KAZ       0.092000
     38 H5          -6.9040     1.6350     3.8740 ha         1 KAZ       0.092000
     39 H6          -4.7640     0.9640     2.8820 ha         1 KAZ       0.119000
     40 H7          -7.6770     0.3420    -1.7360 hc         1 KAZ       0.037700
     41 H8          -5.9350     0.5520    -1.7750 hc         1 KAZ       0.037700
     42 H9           2.4740    -1.7890    -0.5870 ha         1 KAZ       0.118500
     43 H10          4.7580    -1.2470     0.1210 ha         1 KAZ       0.112500
     44 H11          3.5370     2.7440     1.0250 ha         1 KAZ       0.112500
     45 H12          1.2620     2.2250     0.2990 ha         1 KAZ       0.118500
     46 H13          5.8430     2.1770     1.1880 h1         1 KAZ       0.034700
     47 H14          5.7490     0.7500     2.2010 h1         1 KAZ       0.034700
     48 H17          9.9200    -0.5560     0.9210 h1         1 KAZ       0.035700
     49 H18          8.6040    -1.5560     0.2960 h1         1 KAZ       0.035700
     50 H19          8.1580     0.6610    -2.6270 h1         1 KAZ       0.035700
     51 H20          7.5350    -0.8190    -1.8910 h1         1 KAZ       0.035700
     52 H21         -0.6330     1.0170     0.9100 ha         1 KAZ       0.130000
     53 H22         -3.2950    -1.0680    -1.7270 ha         1 KAZ       0.161000
     54 H23         -4.5540    -0.7810    -0.2210 hn         1 KAZ       0.237000
     55 H27          7.3050     2.0310    -0.8050 h1         1 KAZ       0.038700
     56 H28          6.0130     1.0100    -1.4440 h1         1 KAZ       0.038700
     57 H29          9.8860    -1.7160    -1.9040 h1         1 KAZ       0.027700
     58 H30         10.4060    -0.1880    -2.6310 h1         1 KAZ       0.027700
     59 H31         11.1330    -0.7340    -1.1190 h1         1 KAZ       0.027700
     60 H15          7.7890    -0.1680     2.1150 h1         1 KAZ       0.038700
     61 H16          8.4090     1.3030     1.3590 h1         1 KAZ       0.038700
@<TRIPOS>BOND
     1     1     2 ar  
     2     1    23 ar  
     3     1    34 1   
     4     2     3 ar  
     5     2    35 1   
     6     3    21 ar  
     7     3    24 1   
     8     4     5 ar  
     9     4     9 ar  
    10     4    26 1   
    11     5     6 ar  
    12     5    10 1   
    13     6     7 ar  
    14     6    36 1   
    15     7     8 ar  
    16     7    37 1   
    17     8     9 ar  
    18     8    38 1   
    19     9    39 1   
    20    10    11 1   
    21    10    40 1   
    22    10    41 1   
    23    11    28 1   
    24    11    33 1   
    25    12    13 ar  
    26    12    24 ar  
    27    12    42 1   
    28    13    14 ar  
    29    13    43 1   
    30    14    15 ar  
    31    14    17 1   
    32    15    16 ar  
    33    15    44 1   
    34    16    24 ar  
    35    16    45 1   
    36    17    29 1   
    37    17    46 1   
    38    17    47 1   
    39    18    19 1   
    40    18    29 1   
    41    18    60 1   
    42    18    61 1   
    43    19    30 1   
    44    19    48 1   
    45    19    49 1   
    46    20    30 1   
    47    20    31 1   
    48    20    50 1   
    49    20    51 1   
    50    21    22 ar  
    51    21    52 1   
    52    22    23 ar  
    53    22    25 1   
    54    23    53 1   
    55    25    26 1   
    56    25    27 2   
    57    26    54 1   
    58    29    31 1   
    59    30    32 1   
    60    31    55 1   
    61    31    56 1   
    62    32    57 1   
    63    32    58 1   
    64    32    59 1   
@<TRIPOS>SUBSTRUCTURE
     1 KAZ         1 TEMP              0 ****  ****    0 ROOT
