@<TRIPOS>MOLECULE
KB0
   42    45     1     0     0
SMALL
No Charge or Current Charge


@<TRIPOS>ATOM
      1 C4           3.3210     1.9530    -0.0480 ca         1 KB0      -0.022300
      2 C5           2.0380     1.3780    -0.0590 ca         1 KB0      -0.131300
      3 C6           1.8630     0.0080    -0.0710 ca         1 KB0      -0.011800
      4 C7           0.6870     2.0620    -0.0250 c5         1 KB0      -0.001900
      5 C8          -0.3260     0.8960    -0.0230 ce         1 KB0      -0.036400
      6 C10         -2.3920     2.1320     0.7110 ca         1 KB0      -0.055000
      7 C13         -4.0280     0.4070    -0.7810 ca         1 KB0      -0.180500
      8 C15          0.4220    -0.2510    -0.0700 cf         1 KB0      -0.017400
      9 C20         -1.0080    -2.0580     0.8960 ca         1 KB0      -0.098000
     10 C21         -1.4780    -3.3830     0.9130 ca         1 KB0      -0.114000
     11 C22         -0.9930    -4.3130    -0.0210 ca         1 KB0      -0.109000
     12 C24          0.4270    -2.5900    -0.9920 ca         1 KB0      -0.098000
     13 C1           2.9600    -0.8700    -0.0400 ca         1 KB0      -0.185000
     14 C2           4.2530    -0.3160    -0.0320 ca         1 KB0       0.138100
     15 C3           4.4330     1.0830    -0.0410 ca         1 KB0      -0.144000
     16 C9          -1.8060     1.0830    -0.0260 ca         1 KB0      -0.081800
     17 C11         -3.7870     2.3110     0.7060 ca         1 KB0      -0.180500
     18 C12         -4.6040     1.4470    -0.0390 ca         1 KB0       0.145100
     19 C14         -2.6340     0.2250    -0.7780 ca         1 KB0      -0.055000
     20 C16          3.5030     3.4630    -0.0340 c3         1 KB0      -0.046800
     21 O17          5.3440    -1.1320    -0.0080 oh         1 KB0      -0.537100
     22 O18         -5.9560     1.6150    -0.0490 oh         1 KB0      -0.531100
     23 C19         -0.0440    -1.6530    -0.0490 ca         1 KB0      -0.039800
     24 C23         -0.0420    -3.9150    -0.9750 ca         1 KB0      -0.114000
     25 H2           0.5780     2.6850     0.8690 hc         1 KB0       0.072200
     26 H3           0.5340     2.7120    -0.8940 hc         1 KB0       0.072200
     27 H5          -4.6600    -0.2600    -1.3630 ha         1 KB0       0.121500
     28 H6          -1.3890    -1.3440     1.6220 ha         1 KB0       0.118500
     29 H7          -2.2180    -3.6870     1.6500 ha         1 KB0       0.113000
     30 H8          -1.3580    -5.3380    -0.0090 ha         1 KB0       0.112000
     31 H9           1.1470    -2.2870    -1.7490 ha         1 KB0       0.118500
     32 H10          2.8170    -1.9460    -0.0120 ha         1 KB0       0.122000
     33 H11          5.4410     1.4910    -0.0320 ha         1 KB0       0.127000
     34 H13         -4.2240     3.1220     1.2840 ha         1 KB0       0.121500
     35 H14         -2.2000    -0.5780    -1.3670 ha         1 KB0       0.118000
     36 H15          3.0680     3.9010     0.8720 hc         1 KB0       0.043700
     37 H16          4.5620     3.7450    -0.0620 hc         1 KB0       0.043700
     38 H17          3.0140     3.9250    -0.9000 hc         1 KB0       0.043700
     39 H18          5.0340    -2.0630    -0.0020 ho         1 KB0       0.464000
     40 H19         -6.1760     2.3840     0.5190 ho         1 KB0       0.465000
     41 H20          0.3270    -4.6310    -1.7060 ha         1 KB0       0.113000
     42 H4          -1.7710     2.8050     1.2970 ha         1 KB0       0.118000
@<TRIPOS>BOND
     1     1     2 ar  
     2     1    15 ar  
     3     1    20 1   
     4     2     3 ar  
     5     2     4 1   
     6     3     8 1   
     7     3    13 ar  
     8     4     5 1   
     9     4    25 1   
    10     4    26 1   
    11     5     8 2   
    12     5    16 1   
    13     6    16 ar  
    14     6    17 ar  
    15     6    42 1   
    16     7    18 ar  
    17     7    19 ar  
    18     7    27 1   
    19     8    23 1   
    20     9    10 ar  
    21     9    23 ar  
    22     9    28 1   
    23    10    11 ar  
    24    10    29 1   
    25    11    24 ar  
    26    11    30 1   
    27    12    23 ar  
    28    12    24 ar  
    29    12    31 1   
    30    13    14 ar  
    31    13    32 1   
    32    14    15 ar  
    33    14    21 1   
    34    15    33 1   
    35    16    19 ar  
    36    17    18 ar  
    37    17    34 1   
    38    18    22 1   
    39    19    35 1   
    40    20    36 1   
    41    20    37 1   
    42    20    38 1   
    43    21    39 1   
    44    22    40 1   
    45    24    41 1   
@<TRIPOS>SUBSTRUCTURE
     1 KB0         1 TEMP              0 ****  ****    0 ROOT
