@<TRIPOS>MOLECULE
KB0
   42    45     1     0     0
SMALL
bcc


@<TRIPOS>ATOM
      1 C4           3.2770     1.9650     0.0100 ca         1 KB0      -0.022300
      2 C5           2.0150     1.3910    -0.0240 ca         1 KB0      -0.131300
      3 C6           1.8550     0.0070    -0.0780 ca         1 KB0      -0.011800
      4 C7           0.6660     2.0320     0.0190 c5         1 KB0      -0.001900
      5 C8          -0.2790     0.8590    -0.0200 ce         1 KB0      -0.036400
      6 C10         -2.3130     2.1470     0.5870 ca         1 KB0      -0.073000
      7 C13         -3.9510     0.3600    -0.7420 ca         1 KB0      -0.198500
      8 C15          0.4250    -0.3000    -0.0650 cf         1 KB0      -0.017400
      9 C20         -0.8930    -2.1180     1.0100 ca         1 KB0      -0.116000
     10 C21         -1.3710    -3.4200     1.0380 ca         1 KB0      -0.132000
     11 C22         -1.0520    -4.3040     0.0150 ca         1 KB0      -0.127000
     12 C24          0.2310    -2.5750    -1.0620 ca         1 KB0      -0.116000
     13 C1           2.9520    -0.8460    -0.1000 ca         1 KB0      -0.203000
     14 C2           4.2210    -0.2740    -0.0770 ca         1 KB0       0.138100
     15 C3           4.3790     1.1130    -0.0220 ca         1 KB0      -0.162000
     16 C9          -1.7280     1.0460    -0.0430 ca         1 KB0      -0.081800
     17 C11         -3.6830     2.3520     0.5750 ca         1 KB0      -0.198500
     18 C12         -4.5160     1.4540    -0.0860 ca         1 KB0       0.145100
     19 C14         -2.5840     0.1670    -0.7180 ca         1 KB0      -0.073000
     20 C16          3.4470     3.4530     0.0770 c3         1 KB0      -0.046800
     21 O17          5.3470    -1.0220    -0.1010 oh         1 KB0      -0.498100
     22 O18         -5.8530     1.5970    -0.1350 oh         1 KB0      -0.492100
     23 C19         -0.0910    -1.6780    -0.0430 ca         1 KB0      -0.039800
     24 C23         -0.2490    -3.8780    -1.0350 ca         1 KB0      -0.132000
     25 H2           0.5330     2.6390     0.9230 hc         1 KB0       0.072200
     26 H3           0.4910     2.7110    -0.8220 hc         1 KB0       0.072200
     27 H5          -4.5890    -0.3310    -1.2790 ha         1 KB0       0.139500
     28 H6          -1.1420    -1.4340     1.8100 ha         1 KB0       0.136500
     29 H7          -1.9910    -3.7460     1.8640 ha         1 KB0       0.131000
     30 H8          -1.4250    -5.3190     0.0360 ha         1 KB0       0.130000
     31 H9           0.8490    -2.2510    -1.8900 ha         1 KB0       0.136500
     32 H10          2.8310    -1.9230    -0.1280 ha         1 KB0       0.140000
     33 H11          5.3820     1.5240     0.0030 ha         1 KB0       0.145000
     34 H13         -4.1000     3.2140     1.0820 ha         1 KB0       0.139500
     35 H14         -2.1750    -0.6780    -1.2550 ha         1 KB0       0.136000
     36 H15          2.8370     3.8850     0.8720 hc         1 KB0       0.043700
     37 H16          4.4830     3.7330     0.2610 hc         1 KB0       0.043700
     38 H17          3.1340     3.9280    -0.8550 hc         1 KB0       0.043700
     39 H18          5.1230    -1.9580    -0.1360 ho         1 KB0       0.425000
     40 H19         -6.1260     2.3900     0.3400 ho         1 KB0       0.426000
     41 H20          0.0050    -4.5600    -1.8350 ha         1 KB0       0.131000
     42 H4          -1.6940     2.8640     1.1130 ha         1 KB0       0.136000
@<TRIPOS>BOND
     1     1     2 ar  
     2     1    15 ar  
     3     1    20 1   
     4     2     3 ar  
     5     2     4 1   
     6     3     8 1   
     7     3    13 ar  
     8     4     5 1   
     9     4    25 1   
    10     4    26 1   
    11     5     8 2   
    12     5    16 1   
    13     6    16 ar  
    14     6    17 ar  
    15     6    42 1   
    16     7    18 ar  
    17     7    19 ar  
    18     7    27 1   
    19     8    23 1   
    20     9    10 ar  
    21     9    23 ar  
    22     9    28 1   
    23    10    11 ar  
    24    10    29 1   
    25    11    24 ar  
    26    11    30 1   
    27    12    23 ar  
    28    12    24 ar  
    29    12    31 1   
    30    13    14 ar  
    31    13    32 1   
    32    14    15 ar  
    33    14    21 1   
    34    15    33 1   
    35    16    19 ar  
    36    17    18 ar  
    37    17    34 1   
    38    18    22 1   
    39    19    35 1   
    40    20    36 1   
    41    20    37 1   
    42    20    38 1   
    43    21    39 1   
    44    22    40 1   
    45    24    41 1   
@<TRIPOS>SUBSTRUCTURE
     1 KB0         1 TEMP              0 ****  ****    0 ROOT
