@<TRIPOS>MOLECULE
KB1
   59    62     1     0     0
SMALL
No Charge or Current Charge


@<TRIPOS>ATOM
      1 N6          -3.3060    -1.9970    -3.2650 nv         1 KB1      -1.069900
      2 C6          -3.5950    -1.4240    -2.0660 ca         1 KB1       0.442900
      3 N1          -4.7800    -1.7550    -1.5310 nb         1 KB1      -0.318000
      4 C2          -5.0750    -1.1760    -0.3430 ca         1 KB1       0.162900
      5 N3          -4.3010    -0.3040     0.3460 nb         1 KB1      -0.221000
      6 C4          -3.1170     0.0090    -0.2190 ca         1 KB1       0.121500
      7 C5          -2.7220    -0.5230    -1.4200 ca         1 KB1      -0.089600
      8 N7          -1.4790    -0.0560    -1.8250 nc         1 KB1      -0.529100
      9 C8          -1.1450     0.7680    -0.8120 cd         1 KB1       0.442700
     10 N9          -2.1210     0.8530     0.2010 na         1 KB1      -0.289300
     11 CBF         -2.1170     1.7410     1.3610 c5         1 KB1       0.319300
     12 OAU         -0.8330     2.3950     1.4840 os         1 KB1      -0.429000
     13 CBE         -0.1300     1.8310     2.6180 c5         1 KB1       0.168300
     14 CAQ          0.6370     0.5170     2.2350 c3         1 KB1       0.177800
     15 NBG          1.5500     0.5760     1.0480 n3         1 KB1      -0.747600
     16 CAO          2.2020    -0.7350     0.7440 c3         1 KB1       0.183800
     17 CB           1.2500    -1.9160     0.4180 c3         1 KB1      -0.057400
     18 CA           1.9860    -3.2480     0.1080 c3         1 KB1       0.012500
     19 N            2.8080    -3.1370    -1.1530 n8         1 KB1      -1.001200
     20 C            0.9680    -4.4620     0.1740 c          1 KB1       0.697000
     21 OXT          0.9450    -5.1410     1.1920 o          1 KB1      -0.736500
     22 O            0.3420    -4.7550    -0.8360 o          1 KB1      -0.736500
     23 CAP          2.5470     1.6770     1.1450 c3         1 KB1       0.239100
     24 CAY          3.3440     1.9040    -0.1370 ca         1 KB1      -0.093300
     25 CAK          4.6990     1.5200    -0.2150 ca         1 KB1      -0.068000
     26 CAI          5.4280     1.7350    -1.3990 ca         1 KB1      -0.158500
     27 CAW          4.8050     2.3360    -2.5030 ca         1 KB1       0.159000
     28 FAG          5.5060     2.5430    -3.6390 f          1 KB1      -0.193000
     29 CAJ          3.4590     2.7250    -2.4330 ca         1 KB1      -0.158500
     30 CAL          2.7290     2.5100    -1.2510 ca         1 KB1      -0.068000
     31 CBC         -1.2680     1.6220     3.6640 c5         1 KB1       0.100300
     32 OAE         -1.7120     2.8400     4.2710 oh         1 KB1      -0.713000
     33 CBD         -2.4050     1.0580     2.7560 c5         1 KB1       0.078300
     34 OAF         -3.7000     1.3730     3.3160 oh         1 KB1      -0.700000
     35 H1          -4.0730    -2.3900    -3.8040 hn         1 KB1       0.503000
     36 H2          -2.5290    -1.6050    -3.7910 hn         1 KB1       0.503000
     37 H3          -6.0330    -1.4370     0.1030 h5         1 KB1       0.031100
     38 H4          -0.2320     1.3500    -0.7570 h5         1 KB1       0.115800
     39 H5          -2.8810     2.5010     1.1510 h2         1 KB1       0.102700
     40 H6           0.6010     2.5630     2.9850 h1         1 KB1       0.074700
     41 H7           1.2100     0.2040     3.1190 h1         1 KB1       0.038200
     42 H8          -0.1210    -0.2570     2.0700 h1         1 KB1       0.038200
     43 H10          2.8670    -0.6170    -0.1200 h1         1 KB1       0.034700
     44 H11          2.8380    -1.0300     1.5910 h1         1 KB1       0.034700
     45 H12          0.5950    -2.1000     1.2760 hc         1 KB1       0.043200
     46 H13          0.6030    -1.6460    -0.4240 hc         1 KB1       0.043200
     47 H14          2.7000    -3.4140     0.9260 h1         1 KB1       0.034700
     48 H15          3.3230    -4.0150    -1.2930 hn         1 KB1       0.385000
     49 H16          2.1630    -3.1210    -1.9530 hn         1 KB1       0.385000
     50 H19          2.0480     2.6260     1.3720 h1         1 KB1       0.025700
     51 H20          3.2420     1.4790     1.9730 h1         1 KB1       0.025700
     52 H21          5.1840     1.0520     0.6390 ha         1 KB1       0.128500
     53 H22          6.4710     1.4370    -1.4600 ha         1 KB1       0.125000
     54 H23          2.9840     3.1910    -3.2920 ha         1 KB1       0.125000
     55 H24          1.6860     2.8140    -1.1960 ha         1 KB1       0.128500
     56 H25         -0.9760     0.8980     4.4370 h1         1 KB1       0.048700
     57 H26         -2.6990     2.7520     4.2120 ho         1 KB1       0.514000
     58 H27         -2.2910    -0.0330     2.6630 h1         1 KB1       0.074700
     59 H28         -4.3730     0.8430     2.8230 ho         1 KB1       0.509000
@<TRIPOS>BOND
     1     1     2 1   
     2     1    35 1   
     3     1    36 1   
     4     2     3 ar  
     5     2     7 ar  
     6     3     4 ar  
     7     4     5 ar  
     8     4    37 1   
     9     5     6 ar  
    10     6     7 ar  
    11     6    10 1   
    12     7     8 1   
    13     8     9 2   
    14     9    10 1   
    15     9    38 1   
    16    10    11 1   
    17    11    12 1   
    18    11    33 1   
    19    11    39 1   
    20    12    13 1   
    21    13    14 1   
    22    13    31 1   
    23    13    40 1   
    24    14    15 1   
    25    14    41 1   
    26    14    42 1   
    27    15    16 1   
    28    15    23 1   
    29    16    17 1   
    30    16    43 1   
    31    16    44 1   
    32    17    18 1   
    33    17    45 1   
    34    17    46 1   
    35    18    19 1   
    36    18    20 1   
    37    18    47 1   
    38    19    48 1   
    39    19    49 1   
    40    20    21 1   
    41    20    22 1   
    42    23    24 1   
    43    23    50 1   
    44    23    51 1   
    45    24    25 ar  
    46    24    30 ar  
    47    25    26 ar  
    48    25    52 1   
    49    26    27 ar  
    50    26    53 1   
    51    27    28 1   
    52    27    29 ar  
    53    29    30 ar  
    54    29    54 1   
    55    30    55 1   
    56    31    32 1   
    57    31    33 1   
    58    31    56 1   
    59    32    57 1   
    60    33    34 1   
    61    33    58 1   
    62    34    59 1   
@<TRIPOS>SUBSTRUCTURE
     1 KB1         1 TEMP              0 ****  ****    0 ROOT
