@<TRIPOS>MOLECULE
KB1
   59    62     1     0     0
SMALL
abcg2


@<TRIPOS>ATOM
      1 N6          -4.6140    -2.0270    -3.2880 nv         1 KB1      -1.069900
      2 C6          -4.3950    -0.9750    -2.4970 ca         1 KB1       0.442900
      3 N1          -5.0420     0.1720    -2.7370 nb         1 KB1      -0.318000
      4 C2          -4.8300     1.2140    -1.9380 ca         1 KB1       0.162900
      5 N3          -4.0330     1.2940    -0.8870 nb         1 KB1      -0.221000
      6 C4          -3.3970     0.1480    -0.6620 ca         1 KB1       0.121500
      7 C5          -3.5140    -1.0170    -1.4020 ca         1 KB1      -0.089600
      8 N7          -2.7050    -2.0000    -0.8920 nc         1 KB1      -0.529100
      9 C8          -2.1190    -1.4470     0.1270 cd         1 KB1       0.442700
     10 N9          -2.4980    -0.1430     0.3280 na         1 KB1      -0.289300
     11 CBF         -2.0260     0.7900     1.3110 c5         1 KB1       0.319300
     12 OAU         -0.6870     1.1130     1.0600 os         1 KB1      -0.429000
     13 CBE         -0.0370     1.4730     2.2850 c5         1 KB1       0.168300
     14 CAQ          1.1910     0.6020     2.5060 c3         1 KB1       0.177800
     15 NBG          2.0750     0.6130     1.3630 n3         1 KB1      -0.747600
     16 CAO          2.6470    -0.6780     1.0300 c3         1 KB1       0.183800
     17 CB           1.5950    -1.6350     0.4920 c3         1 KB1      -0.057400
     18 CA           2.0990    -3.0560     0.2760 c3         1 KB1       0.012500
     19 N            3.1860    -3.0580    -0.6920 n8         1 KB1      -1.001200
     20 C            0.9140    -4.0080    -0.0380 c          1 KB1       0.697000
     21 OXT         -0.0230    -4.0070     0.7910 o          1 KB1      -0.736500
     22 O            0.9930    -4.7150    -1.0610 o          1 KB1      -0.736500
     23 CAP          3.0440     1.6830     1.4010 c3         1 KB1       0.239100
     24 CAY          3.5260     2.0600     0.0230 ca         1 KB1      -0.093300
     25 CAK          4.8600     2.3650    -0.2180 ca         1 KB1      -0.068000
     26 CAI          5.2960     2.7490    -1.4820 ca         1 KB1      -0.158500
     27 CAW          4.3700     2.8180    -2.5030 ca         1 KB1       0.159000
     28 FAG          4.7790     3.1840    -3.7320 f          1 KB1      -0.193000
     29 CAJ          3.0360     2.5160    -2.3040 ca         1 KB1      -0.158500
     30 CAL          2.6230     2.1360    -1.0360 ca         1 KB1      -0.068000
     31 CBC         -1.0780     1.2970     3.3920 c5         1 KB1       0.100300
     32 OAE         -1.7230     2.5240     3.6240 oh         1 KB1      -0.713000
     33 CBD         -2.0380     0.2880     2.7480 c5         1 KB1       0.078300
     34 OAF         -3.3370     0.2980     3.2570 oh         1 KB1      -0.700000
     35 H1          -5.1920    -1.9330    -4.1050 hn         1 KB1       0.503000
     36 H2          -4.0910    -2.8770    -3.1720 hn         1 KB1       0.503000
     37 H3          -5.3860     2.1120    -2.1870 h5         1 KB1       0.031100
     38 H4          -1.3990    -1.9510     0.7550 h5         1 KB1       0.115800
     39 H5          -2.6800     1.6660     1.2260 h2         1 KB1       0.102700
     40 H6           0.2660     2.5250     2.2240 h1         1 KB1       0.074700
     41 H7           1.6880     0.9460     3.4260 h1         1 KB1       0.038200
     42 H8           0.8740    -0.4220     2.7130 h1         1 KB1       0.038200
     43 H10          3.4150    -0.5270     0.2700 h1         1 KB1       0.034700
     44 H11          3.1580    -1.1360     1.8950 h1         1 KB1       0.034700
     45 H12          0.7590    -1.6840     1.1880 hc         1 KB1       0.043200
     46 H13          1.1880    -1.2320    -0.4420 hc         1 KB1       0.043200
     47 H14          2.5170    -3.3990     1.2330 h1         1 KB1       0.034700
     48 H15          3.4440    -4.0180    -0.8850 hn         1 KB1       0.385000
     49 H16          2.8270    -2.7130    -1.5760 hn         1 KB1       0.385000
     50 H19          2.5680     2.5600     1.8500 h1         1 KB1       0.025700
     51 H20          3.9080     1.4520     2.0460 h1         1 KB1       0.025700
     52 H21          5.5810     2.3010     0.5880 ha         1 KB1       0.128500
     53 H22          6.3370     2.9800    -1.6660 ha         1 KB1       0.125000
     54 H23          2.3320     2.5740    -3.1240 ha         1 KB1       0.125000
     55 H24          1.5850     1.8810    -0.8620 ha         1 KB1       0.128500
     56 H25         -0.6270     0.9020     4.3120 h1         1 KB1       0.048700
     57 H26         -2.5490     2.3430     4.0860 ho         1 KB1       0.514000
     58 H27         -1.5890    -0.7130     2.7970 h1         1 KB1       0.074700
     59 H28         -3.3680    -0.2530     4.0450 ho         1 KB1       0.509000
@<TRIPOS>BOND
     1     1     2 1   
     2     1    35 1   
     3     1    36 1   
     4     2     3 ar  
     5     2     7 ar  
     6     3     4 ar  
     7     4     5 ar  
     8     4    37 1   
     9     5     6 ar  
    10     6     7 ar  
    11     6    10 1   
    12     7     8 1   
    13     8     9 2   
    14     9    10 1   
    15     9    38 1   
    16    10    11 1   
    17    11    12 1   
    18    11    33 1   
    19    11    39 1   
    20    12    13 1   
    21    13    14 1   
    22    13    31 1   
    23    13    40 1   
    24    14    15 1   
    25    14    41 1   
    26    14    42 1   
    27    15    16 1   
    28    15    23 1   
    29    16    17 1   
    30    16    43 1   
    31    16    44 1   
    32    17    18 1   
    33    17    45 1   
    34    17    46 1   
    35    18    19 1   
    36    18    20 1   
    37    18    47 1   
    38    19    48 1   
    39    19    49 1   
    40    20    21 1   
    41    20    22 1   
    42    23    24 1   
    43    23    50 1   
    44    23    51 1   
    45    24    25 ar  
    46    24    30 ar  
    47    25    26 ar  
    48    25    52 1   
    49    26    27 ar  
    50    26    53 1   
    51    27    28 1   
    52    27    29 ar  
    53    29    30 ar  
    54    29    54 1   
    55    30    55 1   
    56    31    32 1   
    57    31    33 1   
    58    31    56 1   
    59    32    57 1   
    60    33    34 1   
    61    33    58 1   
    62    34    59 1   
@<TRIPOS>SUBSTRUCTURE
     1 KB1         1 TEMP              0 ****  ****    0 ROOT
