@<TRIPOS>MOLECULE
KB2
   63    65     1     0     0
SMALL
No Charge or Current Charge


@<TRIPOS>ATOM
      1 C1           6.1480    -3.2690     0.6050 ca         1 KB2       0.350900
      2 N2           5.5310    -2.6620     1.6450 nb         1 KB2      -0.661000
      3 C3           4.7840    -1.5570     1.4010 ca         1 KB2       0.269000
      4 C4           4.6370    -1.0270     0.0930 ca         1 KB2      -0.083000
      5 C5           5.2810    -1.6630    -0.9830 ca         1 KB2      -0.060000
      6 C6           6.0500    -2.8060    -0.7160 ca         1 KB2      -0.170000
      7 C7           3.8560     0.1230    -0.1320 ca         1 KB2      -0.093000
      8 C8           3.2100     0.7630     0.9420 ca         1 KB2      -0.082300
      9 C9           3.3500     0.2410     2.2410 ca         1 KB2      -0.082000
     10 C10          4.1310    -0.9070     2.4640 ca         1 KB2      -0.091000
     11 C11          2.3620     2.0030     0.7010 c3         1 KB2       0.217100
     12 N12          0.9380     1.6150     0.5880 n7         1 KB2      -0.896400
     13 C13         -0.0930     2.6520     0.2580 c3         1 KB2       0.195900
     14 C14         -1.4800     1.9880     0.3650 cc         1 KB2       0.202300
     15 N15         -2.6350     2.7010     0.5750 nc         1 KB2      -0.355000
     16 N16         -3.6440     1.8710     0.6240 nd         1 KB2      -0.220800
     17 N17         -3.1400     0.6110     0.4510 na         1 KB2       0.124800
     18 C18         -1.7740     0.6580     0.2920 cd         1 KB2      -0.167000
     19 C19         -4.0060    -0.5780     0.4570 c3         1 KB2      -0.016700
     20 C20         -3.6750    -1.4510     1.6840 c          1 KB2       0.565100
     21 O21         -2.9220    -2.4150     1.6300 o          1 KB2      -0.493100
     22 C22         -4.3370    -1.0440     3.0000 c3         1 KB2      -0.197100
     23 C23         -3.9450    -1.3420    -0.8980 c3         1 KB2      -0.088400
     24 C24         -5.0010    -2.4650    -1.0300 c3         1 KB2      -0.077400
     25 C25         -4.9460    -3.1840    -2.3960 c3         1 KB2      -0.075400
     26 C26         -5.9970    -4.3020    -2.5310 c3         1 KB2      -0.090100
     27 C27          0.1620     3.1850    -1.2090 c3         1 KB2      -0.073700
     28 C28          0.1890     2.0590    -2.2800 c3         1 KB2      -0.086600
     29 C29         -0.8130     4.3050    -1.6630 c3         1 KB2      -0.086600
     30 C30          0.0350     3.7910     1.3160 c3         1 KB2      -0.084100
     31 H1           6.7390    -4.1540     0.8400 h4         1 KB2       0.017100
     32 H5           5.1880    -1.2840    -1.9990 ha         1 KB2       0.117000
     33 H6           6.5650    -3.3300    -1.5170 ha         1 KB2       0.123000
     34 H7           3.7490     0.5180    -1.1400 ha         1 KB2       0.112000
     35 H9           2.8500     0.7240     3.0770 ha         1 KB2       0.130000
     36 H10          4.2300    -1.2990     3.4720 ha         1 KB2       0.131000
     37 H11          2.5190     2.7020     1.5340 h1         1 KB2       0.041200
     38 H11A         2.7170     2.4950    -0.2140 h1         1 KB2       0.041200
     39 HN12         0.8840     0.8880    -0.1300 hn         1 KB2       0.420000
     40 H18         -1.1490    -0.2130     0.1490 h4         1 KB2       0.180000
     41 H19         -5.0360    -0.2290     0.5940 h1         1 KB2       0.096700
     42 H22         -5.4240    -1.0350     2.8640 hc         1 KB2       0.069033
     43 H22A        -4.0420    -1.6870     3.8380 hc         1 KB2       0.069033
     44 H22B        -4.1190     0.0110     3.2000 hc         1 KB2       0.069033
     45 H23         -4.1000    -0.6230    -1.7130 hc         1 KB2       0.061200
     46 H23A        -2.9420    -1.7640    -1.0420 hc         1 KB2       0.061200
     47 H24         -4.8540    -3.2060    -0.2340 hc         1 KB2       0.042700
     48 H24A        -6.0020    -2.0380    -0.8890 hc         1 KB2       0.042700
     49 H25         -5.1000    -2.4520    -3.1990 hc         1 KB2       0.042200
     50 H25A        -3.9480    -3.6140    -2.5420 hc         1 KB2       0.042200
     51 H26         -5.9210    -4.7820    -3.5140 hc         1 KB2       0.034700
     52 H26A        -5.8480    -5.0700    -1.7630 hc         1 KB2       0.034700
     53 H26B        -7.0110    -3.8980    -2.4250 hc         1 KB2       0.034700
     54 H27          1.1540     3.6510    -1.2230 hc         1 KB2       0.034700
     55 H28         -0.7760     1.5420    -2.3360 hc         1 KB2       0.036867
     56 H28A         0.4020     2.4780    -3.2710 hc         1 KB2       0.036867
     57 H28B         0.9680     1.3170    -2.0690 hc         1 KB2       0.036867
     58 H29         -0.8020     5.1570    -0.9740 hc         1 KB2       0.036867
     59 H29A        -0.5230     4.6850    -2.6500 hc         1 KB2       0.036867
     60 H29B        -1.8410     3.9330    -1.7420 hc         1 KB2       0.036867
     61 H30          0.9700     4.3490     1.1950 hc         1 KB2       0.045033
     62 H30A        -0.7830     4.5150     1.2350 hc         1 KB2       0.045033
     63 H30B         0.0070     3.3790     2.3320 hc         1 KB2       0.045033
@<TRIPOS>BOND
     1     1     2 ar  
     2     1     6 ar  
     3     1    31 1   
     4     2     3 ar  
     5     3     4 ar  
     6     3    10 ar  
     7     4     5 ar  
     8     4     7 ar  
     9     5     6 ar  
    10     5    32 1   
    11     6    33 1   
    12     7     8 ar  
    13     7    34 1   
    14     8     9 ar  
    15     8    11 1   
    16     9    10 ar  
    17     9    35 1   
    18    10    36 1   
    19    11    12 1   
    20    11    37 1   
    21    11    38 1   
    22    12    13 1   
    23    12    39 1   
    24    13    14 1   
    25    13    27 1   
    26    13    30 1   
    27    14    15 1   
    28    14    18 2   
    29    15    16 2   
    30    16    17 1   
    31    17    18 1   
    32    17    19 1   
    33    18    40 1   
    34    19    20 1   
    35    19    23 1   
    36    19    41 1   
    37    20    21 2   
    38    20    22 1   
    39    22    42 1   
    40    22    43 1   
    41    22    44 1   
    42    23    24 1   
    43    23    45 1   
    44    23    46 1   
    45    24    25 1   
    46    24    47 1   
    47    24    48 1   
    48    25    26 1   
    49    25    49 1   
    50    25    50 1   
    51    26    51 1   
    52    26    52 1   
    53    26    53 1   
    54    27    28 1   
    55    27    29 1   
    56    27    54 1   
    57    28    55 1   
    58    28    56 1   
    59    28    57 1   
    60    29    58 1   
    61    29    59 1   
    62    29    60 1   
    63    30    61 1   
    64    30    62 1   
    65    30    63 1   
@<TRIPOS>SUBSTRUCTURE
     1 KB2         1 TEMP              0 ****  ****    0 ROOT
