@<TRIPOS>MOLECULE
KB2
   63    65     1     0     0
SMALL
bcc


@<TRIPOS>ATOM
      1 C1           5.8600    -3.6280    -0.0950 ca         1 KB2       0.416200
      2 N2           4.7940    -3.3750     0.6180 nb         1 KB2      -0.661000
      3 C3           4.2200    -2.1540     0.5000 ca         1 KB2       0.399600
      4 C4           4.7340    -1.1530    -0.3600 ca         1 KB2      -0.148300
      5 C5           5.8840    -1.4680    -1.1140 ca         1 KB2      -0.078000
      6 C6           6.4510    -2.7050    -0.9820 ca         1 KB2      -0.253300
      7 C7           4.0870     0.1020    -0.4340 ca         1 KB2      -0.111000
      8 C8           2.9750     0.3690     0.3170 ca         1 KB2      -0.082300
      9 C9           2.4620    -0.6420     1.1680 ca         1 KB2      -0.100000
     10 C10          3.0640    -1.8630     1.2640 ca         1 KB2      -0.174300
     11 C11          2.2940     1.7110     0.2730 c3         1 KB2       0.217100
     12 N12          0.8790     1.5310     0.0250 n7         1 KB2      -0.841200
     13 C13         -0.0110     2.6830     0.1910 c3         1 KB2       0.195900
     14 C14         -1.3990     2.1100     0.0640 cc         1 KB2       0.267600
     15 N15         -2.5220     2.8380    -0.1160 nc         1 KB2      -0.355000
     16 N16         -3.5450     2.0550    -0.1400 nd         1 KB2      -0.220800
     17 N17         -3.1110     0.8160     0.0190 na         1 KB2       0.103400
     18 C18         -1.7750     0.7930     0.1660 cd         1 KB2      -0.199600
     19 C19         -4.0730    -0.2600     0.1350 c3         1 KB2      -0.046000
     20 C20         -4.4690    -0.4100     1.6080 c          1 KB2       0.565100
     21 O21         -3.6160    -0.4260     2.4610 o          1 KB2      -0.493100
     22 C22         -5.9340    -0.5140     1.8880 c3         1 KB2      -0.197100
     23 C23         -3.5210    -1.5730    -0.4220 c3         1 KB2      -0.088400
     24 C24         -4.5400    -2.7070    -0.4140 c3         1 KB2      -0.077400
     25 C25         -3.9970    -3.9650    -1.0810 c3         1 KB2      -0.075400
     26 C26         -5.0060    -5.1050    -1.0810 c3         1 KB2      -0.090100
     27 C27          0.2810     3.8000    -0.8570 c3         1 KB2      -0.073700
     28 C28         -0.0080     3.3520    -2.2870 c3         1 KB2      -0.086600
     29 C29         -0.4010     5.1390    -0.5830 c3         1 KB2      -0.086600
     30 C30          0.1400     3.2290     1.6170 c3         1 KB2      -0.084100
     31 H1           6.3000    -4.6130     0.0190 h4         1 KB2       0.017100
     32 H5           6.3060    -0.7300    -1.7850 ha         1 KB2       0.135000
     33 H6           7.3350    -2.9850    -1.5390 ha         1 KB2       0.141000
     34 H7           4.4910     0.8580    -1.0990 ha         1 KB2       0.130000
     35 H9           1.5710    -0.4320     1.7460 ha         1 KB2       0.148000
     36 H10          2.6710    -2.6280     1.9200 ha         1 KB2       0.149000
     37 H11          2.4250     2.1880     1.2470 h1         1 KB2       0.041200
     38 H11A         2.8090     2.3520    -0.4550 h1         1 KB2       0.041200
     39 HN12         0.7540     1.1340    -0.8990 hn         1 KB2       0.364800
     40 H18         -1.2050    -0.1050     0.3190 h4         1 KB2       0.198000
     41 H19         -4.9410     0.0430    -0.4530 h1         1 KB2       0.096700
     42 H22         -6.4070    -1.2490     1.2340 hc         1 KB2       0.069033
     43 H22A        -6.1310    -0.7660     2.9270 hc         1 KB2       0.069033
     44 H22B        -6.4020     0.4460     1.6540 hc         1 KB2       0.069033
     45 H23         -3.1920    -1.3880    -1.4470 hc         1 KB2       0.061200
     46 H23A        -2.6400    -1.8780     0.1480 hc         1 KB2       0.061200
     47 H24         -4.8300    -2.9530     0.6130 hc         1 KB2       0.042700
     48 H24A        -5.4540    -2.3870    -0.9270 hc         1 KB2       0.042700
     49 H25         -3.7070    -3.7310    -2.1090 hc         1 KB2       0.042200
     50 H25A        -3.0830    -4.2780    -0.5690 hc         1 KB2       0.042200
     51 H26         -4.6070    -5.9910    -1.5760 hc         1 KB2       0.034700
     52 H26A        -5.2810    -5.3910    -0.0640 hc         1 KB2       0.034700
     53 H26B        -5.9210    -4.8190    -1.6030 hc         1 KB2       0.034700
     54 H27          1.3590     3.9800    -0.7810 hc         1 KB2       0.034700
     55 H28         -1.0770     3.2110    -2.4560 hc         1 KB2       0.036867
     56 H28A         0.3390     4.1060    -2.9950 hc         1 KB2       0.036867
     57 H28B         0.4960     2.4200    -2.5500 hc         1 KB2       0.036867
     58 H29         -0.1330     5.5490     0.3910 hc         1 KB2       0.036867
     59 H29A        -0.0910     5.8690    -1.3340 hc         1 KB2       0.036867
     60 H29B        -1.4860     5.0560    -0.6270 hc         1 KB2       0.036867
     61 H30          1.0640     3.7940     1.7440 hc         1 KB2       0.045033
     62 H30A        -0.6860     3.8940     1.8640 hc         1 KB2       0.045033
     63 H30B         0.1350     2.4050     2.3320 hc         1 KB2       0.045033
@<TRIPOS>BOND
     1     1     2 ar  
     2     1     6 ar  
     3     1    31 1   
     4     2     3 ar  
     5     3     4 ar  
     6     3    10 ar  
     7     4     5 ar  
     8     4     7 ar  
     9     5     6 ar  
    10     5    32 1   
    11     6    33 1   
    12     7     8 ar  
    13     7    34 1   
    14     8     9 ar  
    15     8    11 1   
    16     9    10 ar  
    17     9    35 1   
    18    10    36 1   
    19    11    12 1   
    20    11    37 1   
    21    11    38 1   
    22    12    13 1   
    23    12    39 1   
    24    13    14 1   
    25    13    27 1   
    26    13    30 1   
    27    14    15 1   
    28    14    18 2   
    29    15    16 2   
    30    16    17 1   
    31    17    18 1   
    32    17    19 1   
    33    18    40 1   
    34    19    20 1   
    35    19    23 1   
    36    19    41 1   
    37    20    21 2   
    38    20    22 1   
    39    22    42 1   
    40    22    43 1   
    41    22    44 1   
    42    23    24 1   
    43    23    45 1   
    44    23    46 1   
    45    24    25 1   
    46    24    47 1   
    47    24    48 1   
    48    25    26 1   
    49    25    49 1   
    50    25    50 1   
    51    26    51 1   
    52    26    52 1   
    53    26    53 1   
    54    27    28 1   
    55    27    29 1   
    56    27    54 1   
    57    28    55 1   
    58    28    56 1   
    59    28    57 1   
    60    29    58 1   
    61    29    59 1   
    62    29    60 1   
    63    30    61 1   
    64    30    62 1   
    65    30    63 1   
@<TRIPOS>SUBSTRUCTURE
     1 KB2         1 TEMP              0 ****  ****    0 ROOT
