@<TRIPOS>MOLECULE
KB4
   36    39     1     0     0
SMALL
No Charge or Current Charge


@<TRIPOS>ATOM
      1 N10         -3.2280     1.6370     0.7250 nb         1 KB4      -0.182000
      2 C01         -3.8480    -1.6440    -1.6820 ca         1 KB4       0.339900
      3 C02         -4.9050    -0.7490    -1.4780 ca         1 KB4      -0.135000
      4 C03         -4.7000     0.3710    -0.6590 ca         1 KB4      -0.059000
      5 C04         -3.4400     0.5630    -0.0630 ca         1 KB4       0.013000
      6 C05         -2.4090    -0.3920    -0.3110 ca         1 KB4       0.147000
      7 N06         -2.6300    -1.4760    -1.1180 nb         1 KB4      -0.649000
      8 C07         -1.1450    -0.1290     0.3230 ca         1 KB4       0.432900
      9 N08         -0.9610     0.9480     1.1130 nb         1 KB4      -0.256000
     10 C09         -2.0060     1.7730     1.2690 ca         1 KB4       0.269000
     11 Cl11        -1.7510     3.1770     2.2920 cl         1 KB4      -0.129000
     12 N12         -0.0040    -0.9850     0.2190 nh         1 KB4      -0.768100
     13 C13          1.3250    -0.5100    -0.0140 ca         1 KB4       0.197000
     14 C14          2.4400    -1.3150     0.3330 ca         1 KB4      -0.002000
     15 N15          2.2350    -2.5920     0.8980 ns         1 KB4      -0.140000
     16 C16          1.0250    -3.2230     1.0820 c          1 KB4       0.545000
     17 O17          0.9300    -4.3090     1.6450 o          1 KB4      -0.528000
     18 C18         -0.1980    -2.4570     0.5140 c6         1 KB4       0.143800
     19 C19          3.7520    -0.8570     0.1190 ca         1 KB4      -0.185000
     20 C20          3.9830     0.3990    -0.4580 ca         1 KB4       0.172100
     21 C21          2.8860     1.2010    -0.8330 ca         1 KB4      -0.210000
     22 C22          1.5720     0.7460    -0.6150 ca         1 KB4      -0.020000
     23 O23          5.2910     0.7930    -0.6450 os         1 KB4      -0.339100
     24 C24          5.6350     2.0620    -1.2310 c3         1 KB4       0.148900
     25 H1          -3.9760    -2.5220    -2.3140 h4         1 KB4       0.027100
     26 H2          -5.8670    -0.9250    -1.9530 ha         1 KB4       0.132000
     27 H3          -5.5070     1.0810    -0.4880 ha         1 KB4       0.145000
     28 H4           3.0570    -3.0790     1.2310 hn         1 KB4       0.166000
     29 H5          -1.0010    -2.6030     1.2510 h1         1 KB4       0.102700
     30 H6          -0.4810    -2.9940    -0.4020 h1         1 KB4       0.102700
     31 H7           4.6000    -1.4780     0.3960 ha         1 KB4       0.135000
     32 H8           3.0290     2.1740    -1.2940 ha         1 KB4       0.125000
     33 H9           0.7430     1.3750    -0.9270 ha         1 KB4       0.128000
     34 H10          6.7250     2.1730    -1.2840 h1         1 KB4       0.044033
     35 H11          5.2350     2.1420    -2.2500 h1         1 KB4       0.044033
     36 H12          5.2380     2.8890    -0.6290 h1         1 KB4       0.044033
@<TRIPOS>BOND
     1     1     5 ar  
     2     1    10 ar  
     3     2     3 ar  
     4     2     7 ar  
     5     2    25 1   
     6     3     4 ar  
     7     3    26 1   
     8     4     5 ar  
     9     4    27 1   
    10     5     6 ar  
    11     6     7 ar  
    12     6     8 ar  
    13     8     9 ar  
    14     8    12 1   
    15     9    10 ar  
    16    10    11 1   
    17    12    13 1   
    18    12    18 1   
    19    13    14 ar  
    20    13    22 ar  
    21    14    15 1   
    22    14    19 ar  
    23    15    16 1   
    24    15    28 1   
    25    16    17 2   
    26    16    18 1   
    27    18    29 1   
    28    18    30 1   
    29    19    20 ar  
    30    19    31 1   
    31    20    21 ar  
    32    20    23 1   
    33    21    22 ar  
    34    21    32 1   
    35    22    33 1   
    36    23    24 1   
    37    24    34 1   
    38    24    35 1   
    39    24    36 1   
@<TRIPOS>SUBSTRUCTURE
     1 KB4         1 TEMP              0 ****  ****    0 ROOT
