@<TRIPOS>MOLECULE
KB4
   36    39     1     0     0
SMALL
abcg2


@<TRIPOS>ATOM
      1 N10         -3.0280     1.6400     0.7610 nb         1 KB4      -0.182000
      2 C01         -4.0330    -1.8130    -1.1720 ca         1 KB4       0.339900
      3 C02         -5.0630    -0.9560    -0.7440 ca         1 KB4      -0.135000
      4 C03         -4.7340     0.1930    -0.0810 ca         1 KB4      -0.059000
      5 C04         -3.3740     0.4740     0.1600 ca         1 KB4       0.013000
      6 C05         -2.4240    -0.4710    -0.2740 ca         1 KB4       0.147000
      7 N06         -2.7660    -1.5810    -0.9460 nb         1 KB4      -0.649000
      8 C07         -1.0430    -0.1430    -0.0040 ca         1 KB4       0.432900
      9 N08         -0.7550     1.0180     0.5520 nb         1 KB4      -0.256000
     10 C09         -1.7540     1.8180     0.8850 ca         1 KB4       0.269000
     11 CL11        -1.2610     3.3140     1.6110 cl         1 KB4      -0.129000
     12 N12          0.0000    -0.9450    -0.3410 nh         1 KB4      -0.768100
     13 C13          1.3190    -0.4330    -0.3430 ca         1 KB4       0.197000
     14 C14          2.2770    -1.1310     0.3920 ca         1 KB4      -0.002000
     15 N15          1.8820    -2.2680     1.0890 ns         1 KB4      -0.140000
     16 C16          0.7760    -2.9820     0.7720 c          1 KB4       0.545000
     17 O17          0.4810    -4.0260     1.3190 o          1 KB4      -0.528000
     18 C18         -0.0510    -2.3980    -0.3580 c6         1 KB4       0.143800
     19 C19          3.5910    -0.6950     0.4280 ca         1 KB4      -0.185000
     20 C20          3.9620     0.4520    -0.2700 ca         1 KB4       0.172100
     21 C21          3.0120     1.1410    -1.0250 ca         1 KB4      -0.210000
     22 C22          1.7040     0.6840    -1.0620 ca         1 KB4      -0.020000
     23 O23          5.2520     0.8120    -0.1680 os         1 KB4      -0.339100
     24 C24          5.6910     1.9660    -0.8590 c3         1 KB4       0.148900
     25 H1          -4.2740    -2.7160    -1.7200 h4         1 KB4       0.027100
     26 H2          -6.0930    -1.2090    -0.9520 ha         1 KB4       0.132000
     27 H3          -5.4860     0.8950     0.2540 ha         1 KB4       0.145000
     28 H4           2.5120    -2.6590     1.7770 hn         1 KB4       0.166000
     29 H5          -1.0700    -2.7520    -0.2670 h1         1 KB4       0.102700
     30 H6           0.3410    -2.7740    -1.3090 h1         1 KB4       0.102700
     31 H7           4.3310    -1.2420     1.0010 ha         1 KB4       0.135000
     32 H8           3.2690     2.0260    -1.5890 ha         1 KB4       0.125000
     33 H9           0.9740     1.2210    -1.6530 ha         1 KB4       0.128000
     34 H10          6.7500     2.0730    -0.6380 h1         1 KB4       0.044033
     35 H11          5.5650     1.8670    -1.9400 h1         1 KB4       0.044033
     36 H12          5.1670     2.8650    -0.5230 h1         1 KB4       0.044033
@<TRIPOS>BOND
     1     1     5 ar  
     2     1    10 ar  
     3     2     3 ar  
     4     2     7 ar  
     5     2    25 1   
     6     3     4 ar  
     7     3    26 1   
     8     4     5 ar  
     9     4    27 1   
    10     5     6 ar  
    11     6     7 ar  
    12     6     8 ar  
    13     8     9 ar  
    14     8    12 1   
    15     9    10 ar  
    16    10    11 1   
    17    12    13 1   
    18    12    18 1   
    19    13    14 ar  
    20    13    22 ar  
    21    14    15 1   
    22    14    19 ar  
    23    15    16 1   
    24    15    28 1   
    25    16    17 2   
    26    16    18 1   
    27    18    29 1   
    28    18    30 1   
    29    19    20 ar  
    30    19    31 1   
    31    20    21 ar  
    32    20    23 1   
    33    21    22 ar  
    34    21    32 1   
    35    22    33 1   
    36    23    24 1   
    37    24    34 1   
    38    24    35 1   
    39    24    36 1   
@<TRIPOS>SUBSTRUCTURE
     1 KB4         1 TEMP              0 ****  ****    0 ROOT
