@<TRIPOS>MOLECULE
KB5
   16    17     1     0     0
SMALL
bcc


@<TRIPOS>ATOM
      1 C4          89.1340    69.4420    57.1740 ca         1 KB5      -0.226200
      2 N3          91.0180    68.7040    56.3640 na         1 KB5      -0.349000
      3 C2          89.9480    68.3210    57.1200 ca         1 KB5       0.464800
      4 N1          87.6900    68.1310    58.4860 nb         1 KB5      -0.826000
      5 C3          90.8010    70.0040    56.0100 cc         1 KB5       0.431700
      6 N4          89.6850    70.4860    56.4710 nd         1 KB5      -0.563100
      7 C           87.9410    69.3100    57.9050 ca         1 KB5       0.779200
      8 N           87.0670    70.3090    58.0500 nv         1 KB5      -0.951500
      9 N2          89.7130    67.1440    57.6910 nb         1 KB5      -0.746000
     10 C1          88.5670    67.1410    58.3520 ca         1 KB5       0.711900
     11 H1          91.8100    68.1290    56.1170 hn         1 KB5       0.328700
     12 H3          86.1940    70.1490    58.5220 hn         1 KB5       0.450800
     13 H4          87.1860    71.1760    57.5560 hn         1 KB5       0.450800
     14 H5          88.3050    66.2140    58.8500 h5         1 KB5       0.049100
     15 H6          91.3220    72.0130    55.0420 hs         1 KB5       0.238800
     16 S           91.9710    70.8440    55.0270 sh         1 KB5      -0.243000
@<TRIPOS>BOND
     1     1     3 ar  
     2     1     6 1   
     3     1     7 ar  
     4     2     3 1   
     5     2     5 1   
     6     2    11 1   
     7     3     9 ar  
     8     4     7 ar  
     9     4    10 ar  
    10     5     6 2   
    11     5    16 1   
    12     7     8 1   
    13     8    12 1   
    14     8    13 1   
    15     9    10 ar  
    16    10    14 1   
    17    15    16 1   
@<TRIPOS>SUBSTRUCTURE
     1 KB5         1 TEMP              0 ****  ****    0 ROOT
