@<TRIPOS>MOLECULE
KB5
   16    17     1     0     0
SMALL
No Charge or Current Charge


@<TRIPOS>ATOM
      1 C4          89.1790    69.4100    57.2050 ca         1 KB5      -0.095600
      2 N3          91.0310    68.6900    56.3420 na         1 KB5      -0.399300
      3 C2          89.9790    68.3000    57.1100 ca         1 KB5       0.136500
      4 N1          87.6460    68.1510    58.5530 nb         1 KB5      -0.300000
      5 C3          90.8450    70.0200    55.9900 cc         1 KB5       0.431700
      6 N4          89.7050    70.5040    56.5050 nd         1 KB5      -0.563100
      7 C           87.9890    69.3040    57.9550 ca         1 KB5       0.450900
      8 N           87.1230    70.3410    58.1090 nv         1 KB5      -1.061900
      9 N2          89.6710    67.1300    57.6970 nb         1 KB5      -0.220000
     10 C1          88.5090    67.1170    58.3940 ca         1 KB5       0.185900
     11 H1          91.8170    68.1170    56.0710 hn         1 KB5       0.379000
     12 H3          86.1700    70.1280    58.3910 hn         1 KB5       0.506000
     13 H4          87.2490    71.1410    57.4940 hn         1 KB5       0.506000
     14 H5          88.2400    66.1780    58.8770 h5         1 KB5       0.049100
     15 H6          91.2270    72.0560    55.0500 hs         1 KB5       0.238800
     16 S           91.9730    70.9300    54.9940 sh         1 KB5      -0.243000
@<TRIPOS>BOND
     1     1     3 ar  
     2     1     6 1   
     3     1     7 ar  
     4     2     3 1   
     5     2     5 1   
     6     2    11 1   
     7     3     9 ar  
     8     4     7 ar  
     9     4    10 ar  
    10     5     6 2   
    11     5    16 1   
    12     7     8 1   
    13     8    12 1   
    14     8    13 1   
    15     9    10 ar  
    16    10    14 1   
    17    15    16 1   
@<TRIPOS>SUBSTRUCTURE
     1 KB5         1 TEMP              0 ****  ****    0 ROOT
