@<TRIPOS>MOLECULE
KB6
   43    46     1     0     0
SMALL
bcc


@<TRIPOS>ATOM
      1 C1         101.0490   -10.4150    13.2710 ca         1 KB6      -0.179500
      2 C2          99.8350    -9.8410    12.9340 ca         1 KB6      -0.066000
      3 C3          98.7470   -10.6390    12.5770 ca         1 KB6      -0.147500
      4 C4          98.8970   -12.0270    12.5650 ca         1 KB6      -0.066000
      5 C5         100.1060   -12.6110    12.9000 ca         1 KB6      -0.179500
      6 C6         101.1650   -11.7920    13.2470 ca         1 KB6       0.151900
      7 F7         102.3400   -12.3470    13.5690 f          1 KB6      -0.138900
      8 C8          97.4660   -10.0530    12.2120 cc         1 KB6       0.546900
      9 N9          96.3830   -10.6580    11.8560 nd         1 KB6      -0.677000
     10 C10         95.4730    -9.6530    11.5960 cd         1 KB6       0.242300
     11 C11         96.0680    -8.4590    11.8230 cc         1 KB6       0.176700
     12 O12         97.3450    -8.7190    12.2140 os         1 KB6      -0.349800
     13 C13         95.6270    -7.0510    11.7520 c3         1 KB6      -0.115400
     14 C14         94.0730    -9.9420    11.1800 c3         1 KB6      -0.098700
     15 C15         93.1570   -10.2580    12.3500 c3         1 KB6       0.154400
     16 C16         90.4970    -6.8060    18.0600 ca         1 KB6      -0.100000
     17 C17         89.7300    -7.9590    18.3550 ca         1 KB6      -0.144000
     18 C18         89.8230    -9.0630    17.5560 ca         1 KB6      -0.086000
     19 C19         91.3350    -6.7710    16.9830 ca         1 KB6      -0.134000
     20 C20         91.4520    -7.9010    16.1340 ca         1 KB6       0.026000
     21 C21         90.6830    -9.0550    16.4340 ca         1 KB6      -0.202300
     22 C22         90.8200   -10.1610    15.5750 ca         1 KB6       0.473200
     23 N23         91.6070   -10.1800    14.5290 nb         1 KB6      -0.743000
     24 C24         92.3260    -9.0860    14.2490 ca         1 KB6       0.648600
     25 C25         92.2890    -7.9360    15.0080 ca         1 KB6      -0.278300
     26 O26         93.1240    -9.1020    13.1770 os         1 KB6      -0.447100
     27 H1         101.8940    -9.7990    13.5480 ha         1 KB6       0.153500
     28 H2          99.7480    -8.7640    12.9540 ha         1 KB6       0.153500
     29 H3          98.0610   -12.6560    12.2900 ha         1 KB6       0.153500
     30 H4         100.2220   -13.6870    12.8890 ha         1 KB6       0.153500
     31 H5          96.2910    -6.4500    11.1280 hc         1 KB6       0.057700
     32 H6          94.6270    -6.9980    11.3270 hc         1 KB6       0.057700
     33 H7          95.5910    -6.5900    12.7410 hc         1 KB6       0.057700
     34 H8          93.6640    -9.1020    10.6150 hc         1 KB6       0.064200
     35 H9          94.0630   -10.8050    10.5100 hc         1 KB6       0.064200
     36 H10         92.1570   -10.5030    11.9850 h1         1 KB6       0.055700
     37 H11         93.5300   -11.1210    12.9070 h1         1 KB6       0.055700
     38 H13         89.0740    -7.9580    19.2150 ha         1 KB6       0.134000
     39 H14         89.2430    -9.9520    17.7710 ha         1 KB6       0.133000
     40 H15         91.9180    -5.8840    16.7640 ha         1 KB6       0.136000
     41 H16         90.2490   -11.0620    15.7750 h4         1 KB6       0.019100
     42 H17         92.8920    -7.0770    14.7410 ha         1 KB6       0.152000
     43 H12         90.4140    -5.9390    18.7030 ha         1 KB6       0.131000
@<TRIPOS>BOND
     1     1     2 ar  
     2     1     6 ar  
     3     1    27 1   
     4     2     3 ar  
     5     2    28 1   
     6     3     4 ar  
     7     3     8 1   
     8     4     5 ar  
     9     4    29 1   
    10     5     6 ar  
    11     5    30 1   
    12     6     7 1   
    13     8     9 2   
    14     8    12 1   
    15     9    10 1   
    16    10    11 2   
    17    10    14 1   
    18    11    12 1   
    19    11    13 1   
    20    13    31 1   
    21    13    32 1   
    22    13    33 1   
    23    14    15 1   
    24    14    34 1   
    25    14    35 1   
    26    15    26 1   
    27    15    36 1   
    28    15    37 1   
    29    16    17 ar  
    30    16    19 ar  
    31    16    43 1   
    32    17    18 ar  
    33    17    38 1   
    34    18    21 ar  
    35    18    39 1   
    36    19    20 ar  
    37    19    40 1   
    38    20    21 ar  
    39    20    25 ar  
    40    21    22 ar  
    41    22    23 ar  
    42    22    41 1   
    43    23    24 ar  
    44    24    25 ar  
    45    24    26 1   
    46    25    42 1   
@<TRIPOS>SUBSTRUCTURE
     1 KB6         1 TEMP              0 ****  ****    0 ROOT
