@<TRIPOS>MOLECULE
KB6
   43    46     1     0     0
SMALL
No Charge or Current Charge


@<TRIPOS>ATOM
      1 C1         101.0680   -10.4040    13.3570 ca         1 KB6      -0.161500
      2 C2          99.8380    -9.8240    13.0000 ca         1 KB6      -0.048000
      3 C3          98.7600   -10.6350    12.5730 ca         1 KB6      -0.147500
      4 C4          98.9430   -12.0360    12.5120 ca         1 KB6      -0.048000
      5 C5         100.1750   -12.6110    12.8700 ca         1 KB6      -0.161500
      6 C6         101.2330   -11.7950    13.2920 ca         1 KB6       0.187000
      7 F7         102.4160   -12.3490    13.6350 f          1 KB6      -0.174000
      8 C8          97.4720   -10.0380    12.1980 cc         1 KB6       0.502500
      9 N9          96.3940   -10.6890    11.7840 nd         1 KB6      -0.677000
     10 C10         95.4720    -9.6860    11.5690 cd         1 KB6       0.242300
     11 C11         96.0520    -8.4750    11.8610 cc         1 KB6       0.132300
     12 O12         97.3290    -8.6820    12.2660 os         1 KB6      -0.261000
     13 C13         95.5180    -7.0710    11.8050 c3         1 KB6      -0.115400
     14 C14         94.0770    -9.9720    11.0830 c3         1 KB6      -0.098700
     15 C15         93.1080   -10.2990    12.2320 c3         1 KB6       0.177600
     16 C16         90.5910    -6.7390    18.0940 ca         1 KB6      -0.082000
     17 C17         89.8370    -7.8750    18.4400 ca         1 KB6      -0.126000
     18 C18         89.8820    -9.0260    17.6320 ca         1 KB6      -0.068000
     19 C19         91.3920    -6.7510    16.9380 ca         1 KB6      -0.116000
     20 C20         91.4370    -7.9020    16.1310 ca         1 KB6       0.026000
     21 C21         90.6840    -9.0380    16.4750 ca         1 KB6      -0.137000
     22 C22         90.7540   -10.1710    15.6420 ca         1 KB6       0.407900
     23 N23         91.5130   -10.2210    14.5230 nb         1 KB6      -0.743000
     24 C24         92.2330    -9.1260    14.2000 ca         1 KB6       0.583300
     25 C25         92.2220    -7.9550    14.9710 ca         1 KB6      -0.195000
     26 O26         93.0180    -9.1330    13.0720 os         1 KB6      -0.470300
     27 H1         101.8930    -9.7770    13.6850 ha         1 KB6       0.135500
     28 H2          99.7300    -8.7420    13.0580 ha         1 KB6       0.135500
     29 H3          98.1300   -12.6830    12.1870 ha         1 KB6       0.135500
     30 H4         100.3090   -13.6890    12.8220 ha         1 KB6       0.135500
     31 H5          96.3240    -6.3370    11.9210 hc         1 KB6       0.057700
     32 H6          95.0220    -6.8800    10.8470 hc         1 KB6       0.057700
     33 H7          94.7890    -6.9020    12.6060 hc         1 KB6       0.057700
     34 H8          93.6880    -9.1180    10.5170 hc         1 KB6       0.064200
     35 H9          94.0940   -10.8200    10.3880 hc         1 KB6       0.064200
     36 H10         92.1240   -10.5570    11.8170 h1         1 KB6       0.055700
     37 H11         93.4850   -11.1630    12.7950 h1         1 KB6       0.055700
     38 H13         89.2180    -7.8640    19.3340 ha         1 KB6       0.116000
     39 H14         89.2960    -9.9020    17.9060 ha         1 KB6       0.115000
     40 H15         91.9740    -5.8710    16.6730 ha         1 KB6       0.118000
     41 H16         90.1850   -11.0700    15.8770 h4         1 KB6       0.019100
     42 H17         92.8210    -7.1050    14.6620 ha         1 KB6       0.134000
     43 H12         90.5540    -5.8510    18.7210 ha         1 KB6       0.113000
@<TRIPOS>BOND
     1     1     2 ar  
     2     1     6 ar  
     3     1    27 1   
     4     2     3 ar  
     5     2    28 1   
     6     3     4 ar  
     7     3     8 1   
     8     4     5 ar  
     9     4    29 1   
    10     5     6 ar  
    11     5    30 1   
    12     6     7 1   
    13     8     9 2   
    14     8    12 1   
    15     9    10 1   
    16    10    11 2   
    17    10    14 1   
    18    11    12 1   
    19    11    13 1   
    20    13    31 1   
    21    13    32 1   
    22    13    33 1   
    23    14    15 1   
    24    14    34 1   
    25    14    35 1   
    26    15    26 1   
    27    15    36 1   
    28    15    37 1   
    29    16    17 ar  
    30    16    19 ar  
    31    16    43 1   
    32    17    18 ar  
    33    17    38 1   
    34    18    21 ar  
    35    18    39 1   
    36    19    20 ar  
    37    19    40 1   
    38    20    21 ar  
    39    20    25 ar  
    40    21    22 ar  
    41    22    23 ar  
    42    22    41 1   
    43    23    24 ar  
    44    24    25 ar  
    45    24    26 1   
    46    25    42 1   
@<TRIPOS>SUBSTRUCTURE
     1 KB6         1 TEMP              0 ****  ****    0 ROOT
