@<TRIPOS>MOLECULE
KB7
   43    45     1     0     0
SMALL
No Charge or Current Charge


@<TRIPOS>ATOM
      1 N1          -4.4800    -1.4930    -0.3100 ns         1 KB7      -0.459400
      2 C2          -4.2650    -0.2040     0.0300 cc         1 KB7       0.741800
      3 O2           4.3460    -0.6480     1.7620 o          1 KB7      -0.549000
      4 N3          -3.1660     0.4970    -0.1400 nd         1 KB7      -0.707100
      5 C4          -2.1520    -0.2460    -0.7550 cd         1 KB7       0.164400
      6 N4           5.4430    -0.7100    -0.2570 ns         1 KB7      -0.496900
      7 C5          -2.2760    -1.5550    -1.1310 cc         1 KB7       0.085500
      8 C6          -3.5470    -2.2820    -0.9060 c          1 KB7       0.523500
      9 C1          -0.2920     1.4680    -0.9100 c5         1 KB7       0.313300
     10 C10         -0.3930     2.0380     0.5420 c5         1 KB7       0.082300
     11 O1          -1.6680     2.6370     0.8360 oh         1 KB7      -0.695000
     12 C3           0.7670     3.0680     0.5170 c5         1 KB7       0.111300
     13 O3           0.3880     4.2470    -0.2080 oh         1 KB7      -0.703000
     14 C11          1.8550     2.2120    -0.2180 c5         1 KB7       0.160300
     15 O4           1.1230     1.4590    -1.2290 os         1 KB7      -0.433000
     16 C12          2.6100     1.2230     0.7130 c3         1 KB7       0.168600
     17 O6          -3.7770    -3.4470    -1.2030 o          1 KB7      -0.516000
     18 N2          -5.2770     0.4160     0.6010 nv         1 KB7      -1.052200
     19 N7          -1.1120    -2.0100    -1.7050 nc         1 KB7      -0.594000
     20 C8          -0.2770    -0.9700    -1.6760 cd         1 KB7       0.403400
     21 N9          -0.8780     0.1450    -1.0970 na         1 KB7      -0.184500
     22 O5           3.7000     0.6410    -0.0290 os         1 KB7      -0.447100
     23 C13          4.4790    -0.2750     0.6070 c          1 KB7       0.637100
     24 C7           6.4540    -1.7190     0.0560 c3         1 KB7       0.119000
     25 C9           5.8760    -3.1450     0.0380 c3         1 KB7      -0.112100
     26 H2           5.4220    -0.3030    -1.1830 hn         1 KB7       0.330500
     27 H3          -0.8110     2.1360    -1.6090 h2         1 KB7       0.119700
     28 H4          -0.1840     1.2420     1.2710 h1         1 KB7       0.057700
     29 H5          -2.3460     1.9510     0.5730 ho         1 KB7       0.516000
     30 H6           1.0860     3.3340     1.5350 h1         1 KB7       0.058700
     31 H7          -0.5580     4.3950     0.0400 ho         1 KB7       0.524000
     32 H8           2.5970     2.8560    -0.7080 h1         1 KB7       0.103700
     33 H9           2.9920     1.7730     1.5830 h1         1 KB7       0.051700
     34 H10          1.9220     0.4460     1.0700 h1         1 KB7       0.051700
     35 H11         -5.9040    -0.1530     1.1560 hn         1 KB7       0.504500
     36 H12         -5.0400     1.3130     1.0050 hn         1 KB7       0.504500
     37 H13          0.7410    -0.9510    -2.0480 h5         1 KB7       0.059100
     38 H14          7.2630    -1.6450    -0.6820 h1         1 KB7       0.051200
     39 H15          6.8780    -1.5070     1.0470 h1         1 KB7       0.051200
     40 H16          5.0850    -3.2570     0.7890 hc         1 KB7       0.045033
     41 H17          5.4550    -3.3790    -0.9480 hc         1 KB7       0.045033
     42 H18          6.6620    -3.8760     0.2580 hc         1 KB7       0.045033
     43 H19         -5.3840    -1.9020    -0.1440 hn         1 KB7       0.321500
@<TRIPOS>BOND
     1     1     2 1   
     2     1     8 1   
     3     1    43 1   
     4     2     4 2   
     5     2    18 1   
     6     3    23 2   
     7     4     5 1   
     8     5     7 2   
     9     5    21 1   
    10     6    23 1   
    11     6    24 1   
    12     6    26 1   
    13     7     8 1   
    14     7    19 1   
    15     8    17 2   
    16     9    10 1   
    17     9    15 1   
    18     9    21 1   
    19     9    27 1   
    20    10    11 1   
    21    10    12 1   
    22    10    28 1   
    23    11    29 1   
    24    12    13 1   
    25    12    14 1   
    26    12    30 1   
    27    13    31 1   
    28    14    15 1   
    29    14    16 1   
    30    14    32 1   
    31    16    22 1   
    32    16    33 1   
    33    16    34 1   
    34    18    35 1   
    35    18    36 1   
    36    19    20 2   
    37    20    21 1   
    38    20    37 1   
    39    22    23 1   
    40    24    25 1   
    41    24    38 1   
    42    24    39 1   
    43    25    40 1   
    44    25    41 1   
    45    25    42 1   
@<TRIPOS>SUBSTRUCTURE
     1 KB7         1 TEMP              0 ****  ****    0 ROOT
