@<TRIPOS>MOLECULE
KB7
   43    45     1     0     0
SMALL
abcg2


@<TRIPOS>ATOM
      1 N1          -4.3520    -1.7020    -0.8770 ns         1 KB7      -0.459400
      2 C2          -4.1350    -0.4370    -1.3410 cc         1 KB7       0.741800
      3 O2           4.8320    -0.1150     1.4110 o          1 KB7      -0.549000
      4 N3          -3.0870     0.2760    -1.0070 nd         1 KB7      -0.707100
      5 C4          -2.2540    -0.3680    -0.1810 cd         1 KB7       0.164400
      6 N4           4.8380    -1.1070    -0.6310 ns         1 KB7      -0.496900
      7 C5          -2.3740    -1.6430     0.3380 cc         1 KB7       0.085500
      8 C6          -3.5160    -2.4210    -0.0130 c          1 KB7       0.523500
      9 C1          -0.5020     1.3980     0.0350 c5         1 KB7       0.313300
     10 C10         -0.2160     2.2490     1.2710 c5         1 KB7       0.082300
     11 O1          -1.3720     2.9320     1.6510 oh         1 KB7      -0.695000
     12 C3           0.9230     3.1360     0.7600 c5         1 KB7       0.111300
     13 O3           0.4320     4.1590    -0.0640 oh         1 KB7      -0.703000
     14 C11          1.6980     2.1480    -0.1040 c5         1 KB7       0.160300
     15 O4           0.7370     1.2130    -0.5960 os         1 KB7      -0.433000
     16 C12          2.7800     1.4350     0.6800 c3         1 KB7       0.168600
     17 O6          -3.8070    -3.5520     0.3350 o          1 KB7      -0.516000
     18 N2          -5.0350     0.0610    -2.1970 nv         1 KB7      -1.052200
     19 N7          -1.3000    -1.9450     1.1370 nc         1 KB7      -0.594000
     20 C8          -0.5570    -0.8840     1.1050 cd         1 KB7       0.403400
     21 N9          -1.0870     0.1170     0.3250 na         1 KB7      -0.184500
     22 O5           3.3660     0.4830    -0.1940 os         1 KB7      -0.447100
     23 C13          4.3900    -0.2380     0.2860 c          1 KB7       0.637100
     24 C7           5.9980    -1.9450    -0.4040 c3         1 KB7       0.119000
     25 C9           6.0780    -3.0270    -1.4640 c3         1 KB7      -0.112100
     26 H2           4.4590    -1.0630    -1.5650 hn         1 KB7       0.330500
     27 H3          -1.2110     1.9140    -0.6200 h2         1 KB7       0.119700
     28 H4           0.1640     1.6180     2.0850 h1         1 KB7       0.057700
     29 H5          -1.2780     3.2220     2.5640 ho         1 KB7       0.516000
     30 H6           1.5350     3.5320     1.5810 h1         1 KB7       0.058700
     31 H7          -0.3070     4.5800     0.3920 ho         1 KB7       0.524000
     32 H8           2.1550     2.6600    -0.9570 h1         1 KB7       0.103700
     33 H9           3.5180     2.1680     1.0150 h1         1 KB7       0.051700
     34 H10          2.3720     0.9420     1.5690 h1         1 KB7       0.051700
     35 H11         -5.9260    -0.3820    -2.3410 hn         1 KB7       0.504500
     36 H12         -4.9600     1.0300    -2.4550 hn         1 KB7       0.504500
     37 H13          0.3850    -0.7690     1.6200 h5         1 KB7       0.059100
     38 H14          6.9150    -1.3470    -0.4110 h1         1 KB7       0.051200
     39 H15          5.9240    -2.4000     0.5840 h1         1 KB7       0.051200
     40 H16          5.2000    -3.6720    -1.4360 hc         1 KB7       0.045033
     41 H17          6.1560    -2.5990    -2.4650 hc         1 KB7       0.045033
     42 H18          6.9590    -3.6460    -1.3000 hc         1 KB7       0.045033
     43 H19         -5.1820    -2.1910    -1.1890 hn         1 KB7       0.321500
@<TRIPOS>BOND
     1     1     2 1   
     2     1     8 1   
     3     1    43 1   
     4     2     4 2   
     5     2    18 1   
     6     3    23 2   
     7     4     5 1   
     8     5     7 2   
     9     5    21 1   
    10     6    23 1   
    11     6    24 1   
    12     6    26 1   
    13     7     8 1   
    14     7    19 1   
    15     8    17 2   
    16     9    10 1   
    17     9    15 1   
    18     9    21 1   
    19     9    27 1   
    20    10    11 1   
    21    10    12 1   
    22    10    28 1   
    23    11    29 1   
    24    12    13 1   
    25    12    14 1   
    26    12    30 1   
    27    13    31 1   
    28    14    15 1   
    29    14    16 1   
    30    14    32 1   
    31    16    22 1   
    32    16    33 1   
    33    16    34 1   
    34    18    35 1   
    35    18    36 1   
    36    19    20 2   
    37    20    21 1   
    38    20    37 1   
    39    22    23 1   
    40    24    25 1   
    41    24    38 1   
    42    24    39 1   
    43    25    40 1   
    44    25    41 1   
    45    25    42 1   
@<TRIPOS>SUBSTRUCTURE
     1 KB7         1 TEMP              0 ****  ****    0 ROOT
