@<TRIPOS>MOLECULE
KB8
   37    39     1     0     0
SMALL
No Charge or Current Charge


@<TRIPOS>ATOM
      1 FAB         -3.5750     1.5430    -1.4460 f          1 KB8      -0.106667
      2 CAU         -3.4710     0.8060    -0.3160 c3         1 KB8       0.260700
      3 FAC         -3.6990     1.6460     0.7200 f          1 KB8      -0.106667
      4 FAD         -4.5000    -0.0770    -0.3340 f          1 KB8      -0.106667
      5 CAP         -2.0860     0.1330    -0.2040 ca         1 KB8       0.283300
      6 CAG         -0.9250     0.9180    -0.2210 ca         1 KB8      -0.210000
      7 NAM         -2.0290    -1.2170    -0.0820 nb         1 KB8      -0.632000
      8 CAR         -0.8260    -1.8250     0.0210 ca         1 KB8       0.274000
      9 CAF         -0.7760    -3.2260     0.1450 ca         1 KB8      -0.079000
     10 CAE          0.4500    -3.9040     0.2490 ca         1 KB8      -0.097000
     11 CAO          1.6560    -3.1860     0.2250 ca         1 KB8      -0.070300
     12 CAA          2.9880    -3.9130     0.3340 c3         1 KB8      -0.049800
     13 CAH          1.6230    -1.7860     0.1050 ca         1 KB8      -0.092000
     14 CAS          0.3890    -1.0980     0.0080 ca         1 KB8      -0.073000
     15 CAQ          0.3300     0.3090    -0.1140 ca         1 KB8       0.338000
     16 NAT          1.4940     1.1140    -0.1130 nh         1 KB8      -0.789400
     17 CAK          2.1670     1.4260     1.1860 c6         1 KB8       0.154300
     18 CAI          3.6540     1.8720     0.9930 c6         1 KB8       0.144800
     19 NAN          3.7980     2.9820     0.0040 n7         1 KB8      -0.840400
     20 CAJ          3.1700     2.6110    -1.2990 c6         1 KB8       0.144800
     21 CAL          1.6740     2.1820    -1.1460 c6         1 KB8       0.154300
     22 HAG         -1.0040     1.9960    -0.3040 ha         1 KB8       0.137000
     23 HAF         -1.7030    -3.7920     0.1600 ha         1 KB8       0.137000
     24 HAE          0.4590    -4.9870     0.3450 ha         1 KB8       0.119000
     25 HAA1         2.9140    -4.9440    -0.0340 hc         1 KB8       0.046033
     26 HAA2         3.7660    -3.4110    -0.2530 hc         1 KB8       0.046033
     27 HAA3         3.3260    -3.9530     1.3760 hc         1 KB8       0.046033
     28 HAH          2.5610    -1.2370     0.0820 ha         1 KB8       0.126000
     29 HAK1         1.6190     2.2290     1.7020 h1         1 KB8       0.046950
     30 HAK2         2.1490     0.5470     1.8470 h1         1 KB8       0.046950
     31 HAL1         1.3090     1.8290    -2.1220 h1         1 KB8       0.046950
     32 HAL2         1.0790     3.0670    -0.8750 h1         1 KB8       0.046950
     33 HAI1         4.0690     2.1810     1.9640 h1         1 KB8       0.062950
     34 HAI2         4.2380     1.0040     0.6510 h1         1 KB8       0.062950
     35 HAN          3.2960     3.7980     0.3730 hn         1 KB8       0.404000
     36 HAJ1         3.2350     3.4570    -1.9990 h1         1 KB8       0.062950
     37 HAJ2         3.7300     1.7750    -1.7460 h1         1 KB8       0.062950
@<TRIPOS>BOND
     1     1     2 1   
     2     2     3 1   
     3     2     4 1   
     4     2     5 1   
     5     5     6 ar  
     6     5     7 ar  
     7     6    15 ar  
     8     6    22 1   
     9     7     8 ar  
    10     8     9 ar  
    11     8    14 ar  
    12     9    10 ar  
    13     9    23 1   
    14    10    11 ar  
    15    10    24 1   
    16    11    12 1   
    17    11    13 ar  
    18    12    25 1   
    19    12    26 1   
    20    12    27 1   
    21    13    14 ar  
    22    13    28 1   
    23    14    15 ar  
    24    15    16 1   
    25    16    17 1   
    26    16    21 1   
    27    17    18 1   
    28    17    29 1   
    29    17    30 1   
    30    18    19 1   
    31    18    33 1   
    32    18    34 1   
    33    19    20 1   
    34    19    35 1   
    35    20    21 1   
    36    20    36 1   
    37    20    37 1   
    38    21    31 1   
    39    21    32 1   
@<TRIPOS>SUBSTRUCTURE
     1 KB8         1 TEMP              0 ****  ****    0 ROOT
