@<TRIPOS>MOLECULE
KB8
   37    39     1     0     0
SMALL
abcg2


@<TRIPOS>ATOM
      1 FAB         -3.5480     0.9020    -1.9000 f          1 KB8      -0.106667
      2 CAU         -3.3620     0.7160    -0.5850 c3         1 KB8       0.260700
      3 FAC         -3.4830     1.9170    -0.0050 f          1 KB8      -0.106667
      4 FAD         -4.3600    -0.0430    -0.1450 f          1 KB8      -0.106667
      5 CAP         -2.0100     0.1020    -0.3190 ca         1 KB8       0.283300
      6 CAG         -0.8740     0.9200    -0.3960 ca         1 KB8      -0.210000
      7 NAM         -2.0030    -1.1690    -0.0430 nb         1 KB8      -0.632000
      8 CAR         -0.7970    -1.7560     0.1360 ca         1 KB8       0.274000
      9 CAF         -0.7660    -3.1480     0.3840 ca         1 KB8      -0.079000
     10 CAE          0.4240    -3.8070     0.4960 ca         1 KB8      -0.097000
     11 CAO          1.6560    -3.1270     0.3450 ca         1 KB8      -0.070300
     12 CAA          2.9410    -3.8940     0.4130 c3         1 KB8      -0.049800
     13 CAH          1.6370    -1.7720     0.1250 ca         1 KB8      -0.092000
     14 CAS          0.4250    -1.0490     0.0520 ca         1 KB8      -0.073000
     15 CAQ          0.3690     0.3630    -0.1720 ca         1 KB8       0.338000
     16 NAT          1.5340     1.1050    -0.1980 nh         1 KB8      -0.789400
     17 CAK          2.3070     1.1840     1.0450 c6         1 KB8       0.154300
     18 CAI          3.7260     1.6410     0.7440 c6         1 KB8       0.144800
     19 NAN          3.7840     2.8920     0.0070 n7         1 KB8      -0.840400
     20 CAJ          2.9330     2.8380    -1.1670 c6         1 KB8       0.144800
     21 CAL          1.5050     2.3910    -0.8770 c6         1 KB8       0.154300
     22 HAG         -0.9800     1.9790    -0.5860 ha         1 KB8       0.137000
     23 HAF         -1.7070    -3.6760     0.4680 ha         1 KB8       0.137000
     24 HAE          0.4290    -4.8750     0.6790 ha         1 KB8       0.119000
     25 HAA1         2.9900    -4.6510    -0.3720 hc         1 KB8       0.046033
     26 HAA2         3.8050    -3.2410     0.3060 hc         1 KB8       0.046033
     27 HAA3         3.0310    -4.4180     1.3670 hc         1 KB8       0.046033
     28 HAH          2.5730    -1.2520    -0.0320 ha         1 KB8       0.126000
     29 HAK1         1.8260     1.8990     1.7300 h1         1 KB8       0.046950
     30 HAK2         2.3180     0.2210     1.5530 h1         1 KB8       0.046950
     31 HAL1         0.9590     2.2930    -1.8160 h1         1 KB8       0.046950
     32 HAL2         0.9950     3.1560    -0.2720 h1         1 KB8       0.046950
     33 HAI1         4.2770     1.7490     1.6790 h1         1 KB8       0.062950
     34 HAI2         4.2340     0.8690     0.1570 h1         1 KB8       0.062950
     35 HAN          3.4700     3.6440     0.6100 hn         1 KB8       0.404000
     36 HAJ1         2.9100     3.8220    -1.6400 h1         1 KB8       0.062950
     37 HAJ2         3.3780     2.1450    -1.8880 h1         1 KB8       0.062950
@<TRIPOS>BOND
     1     1     2 1   
     2     2     3 1   
     3     2     4 1   
     4     2     5 1   
     5     5     6 ar  
     6     5     7 ar  
     7     6    15 ar  
     8     6    22 1   
     9     7     8 ar  
    10     8     9 ar  
    11     8    14 ar  
    12     9    10 ar  
    13     9    23 1   
    14    10    11 ar  
    15    10    24 1   
    16    11    12 1   
    17    11    13 ar  
    18    12    25 1   
    19    12    26 1   
    20    12    27 1   
    21    13    14 ar  
    22    13    28 1   
    23    14    15 ar  
    24    15    16 1   
    25    16    17 1   
    26    16    21 1   
    27    17    18 1   
    28    17    29 1   
    29    17    30 1   
    30    18    19 1   
    31    18    33 1   
    32    18    34 1   
    33    19    20 1   
    34    19    35 1   
    35    20    21 1   
    36    20    36 1   
    37    20    37 1   
    38    21    31 1   
    39    21    32 1   
@<TRIPOS>SUBSTRUCTURE
     1 KB8         1 TEMP              0 ****  ****    0 ROOT
