@<TRIPOS>MOLECULE
KB9
   57    60     1     0     0
SMALL
No Charge or Current Charge


@<TRIPOS>ATOM
      1 C02         30.0540     5.2400    52.5410 c          1 KB9       0.603300
      2 C03         29.2590     3.9610    52.2140 c3         1 KB9      -0.168400
      3 C04         27.9150     4.2680    51.5060 c3         1 KB9      -0.067400
      4 C05         26.9170     5.0820    52.3550 c3         1 KB9      -0.094100
      5 C06         29.9690     5.8310    53.9130 cc         1 KB9      -0.156300
      6 C07         29.2060     5.3470    54.9780 cd         1 KB9      -0.176200
      7 C08         29.3460     6.1910    56.1350 ca         1 KB9      -0.124800
      8 C09         28.7730     6.1110    57.4090 ca         1 KB9      -0.029000
      9 C10         29.0940     7.1160    58.3660 cp         1 KB9      -0.083000
     10 C11         28.5100     7.0800    59.7440 cp         1 KB9       0.019000
     11 C12         29.2170     7.5640    60.8700 ca         1 KB9      -0.161500
     12 C13         28.6340     7.5110    62.1470 ca         1 KB9       0.333900
     13 C15         26.7080     6.5450    61.3060 ca         1 KB9       0.333900
     14 C16         27.2190     6.5590    59.9980 ca         1 KB9      -0.161500
     15 C17         29.9850     8.1610    57.9700 ca         1 KB9      -0.069000
     16 C18         30.5420     8.2080    56.6740 ca         1 KB9      -0.130000
     17 C19         30.1990     7.1900    55.7710 ca         1 KB9      -0.028200
     18 C22         30.7700     9.0660    53.0460 c3         1 KB9      -0.093400
     19 C23         31.6910    10.1140    52.3520 c6         1 KB9      -0.055700
     20 C24         30.8620    11.3020    51.7910 c6         1 KB9      -0.073400
     21 C25         31.7650    12.3330    51.0700 c6         1 KB9       0.159800
     22 C27         33.4050    10.5820    50.5010 c6         1 KB9       0.159800
     23 C28         32.5520     9.5000    51.2110 c6         1 KB9      -0.073400
     24 N14         27.3980     7.0110    62.3710 nb         1 KB9      -0.665000
     25 N20         30.5900     6.9870    54.4490 na         1 KB9      -0.051700
     26 N26         32.5630    11.6920    49.9980 n7         1 KB9      -0.859400
     27 O01         30.7370     5.7520    51.6620 o          1 KB9      -0.536100
     28 H1          29.0420     3.3910    53.1210 hc         1 KB9       0.063200
     29 H2          29.8610     3.3440    51.5360 hc         1 KB9       0.063200
     30 H3          27.4410     3.3190    51.2230 hc         1 KB9       0.049200
     31 H4          28.1130     4.8080    50.5720 hc         1 KB9       0.049200
     32 H5          25.9830     5.2350    51.8000 hc         1 KB9       0.035700
     33 H6          26.6750     4.5550    53.2850 hc         1 KB9       0.035700
     34 H7          27.3240     6.0690    52.6070 hc         1 KB9       0.035700
     35 H8          28.5700     4.4670    54.9540 ha         1 KB9       0.207000
     36 H9          28.1070     5.2890    57.6570 ha         1 KB9       0.119000
     37 H10         30.2200     7.9670    60.7670 ha         1 KB9       0.123000
     38 H11         29.1740     7.8770    63.0190 h4         1 KB9       0.017100
     39 H12         25.7130     6.1500    61.5080 h4         1 KB9       0.017100
     40 H13         26.6020     6.1800    59.1890 ha         1 KB9       0.123000
     41 H14         30.2350     8.9530    58.6710 ha         1 KB9       0.114000
     42 H15         31.2100     9.0180    56.3930 ha         1 KB9       0.120000
     43 H16         32.1070     7.3460    53.0430 h1         1 KB9       0.066200
     44 H17         32.2140     8.3310    54.4960 h1         1 KB9       0.066200
     45 H18         30.1400     9.5740    53.7860 hc         1 KB9       0.056200
     46 H19         30.0830     8.6320    52.3090 hc         1 KB9       0.056200
     47 H20         32.3660    10.5020    53.1290 hc         1 KB9       0.037700
     48 H21         30.3170    11.8010    52.6040 hc         1 KB9       0.049450
     49 H22         30.1030    10.9310    51.0890 hc         1 KB9       0.049450
     50 H23         32.4430    12.7990    51.8010 h1         1 KB9       0.027700
     51 H24         31.1430    13.1300    50.6380 h1         1 KB9       0.027700
     52 H25         33.9520    10.1280    49.6620 h1         1 KB9       0.027700
     53 H26         34.1490    10.9800    51.2070 h1         1 KB9       0.027700
     54 H27         31.9020     9.0060    50.4750 hc         1 KB9       0.049450
     55 H28         33.2220     8.7250    51.6060 hc         1 KB9       0.049450
     56 H29         33.1720    12.4010    49.5700 hn         1 KB9       0.409000
     57 C21         31.5110     7.9150    53.7640 c3         1 KB9       0.077600
@<TRIPOS>BOND
     1     1     2 1   
     2     1     5 1   
     3     1    27 2   
     4     2     3 1   
     5     2    28 1   
     6     2    29 1   
     7     3     4 1   
     8     3    30 1   
     9     3    31 1   
    10     4    32 1   
    11     4    33 1   
    12     4    34 1   
    13     5     6 2   
    14     5    25 1   
    15     6     7 1   
    16     6    35 1   
    17     7     8 ar  
    18     7    17 ar  
    19     8     9 ar  
    20     8    36 1   
    21     9    10 1   
    22     9    15 ar  
    23    10    11 ar  
    24    10    14 ar  
    25    11    12 ar  
    26    11    37 1   
    27    12    24 ar  
    28    12    38 1   
    29    13    14 ar  
    30    13    24 ar  
    31    13    39 1   
    32    14    40 1   
    33    15    16 ar  
    34    15    41 1   
    35    16    17 ar  
    36    16    42 1   
    37    17    25 1   
    38    18    19 1   
    39    18    45 1   
    40    18    46 1   
    41    18    57 1   
    42    19    20 1   
    43    19    23 1   
    44    19    47 1   
    45    20    21 1   
    46    20    48 1   
    47    20    49 1   
    48    21    26 1   
    49    21    50 1   
    50    21    51 1   
    51    22    23 1   
    52    22    26 1   
    53    22    52 1   
    54    22    53 1   
    55    23    54 1   
    56    23    55 1   
    57    25    57 1   
    58    26    56 1   
    59    43    57 1   
    60    44    57 1   
@<TRIPOS>SUBSTRUCTURE
     1 KB9         1 TEMP              0 ****  ****    0 ROOT
