@<TRIPOS>MOLECULE
KB9
   57    60     1     0     0
SMALL
bcc


@<TRIPOS>ATOM
      1 C02         29.9670     5.3510    52.6190 c          1 KB9       0.603300
      2 C03         29.2750     4.0470    52.2900 c3         1 KB9      -0.168400
      3 C04         28.0770     4.2580    51.3590 c3         1 KB9      -0.067400
      4 C05         26.9420     5.0430    52.0020 c3         1 KB9      -0.094100
      5 C06         29.8850     5.8510    53.9960 cc         1 KB9      -0.156300
      6 C07         29.1080     5.3330    55.0090 cd         1 KB9      -0.126200
      7 C08         29.2750     6.1670    56.1390 ca         1 KB9      -0.124800
      8 C09         28.7450     6.1530    57.4330 ca         1 KB9      -0.047000
      9 C10         29.1240     7.1320    58.3320 cp         1 KB9      -0.083000
     10 C11         28.5850     7.1420    59.7030 cp         1 KB9       0.019000
     11 C12         29.3570     7.5440    60.7930 ca         1 KB9      -0.244800
     12 C13         28.8010     7.5330    62.0620 ca         1 KB9       0.399200
     13 C15         26.8160     6.7720    61.2830 ca         1 KB9       0.399200
     14 C16         27.2750     6.7490    59.9770 ca         1 KB9      -0.244800
     15 C17         30.0390     8.1340    57.9250 ca         1 KB9      -0.087000
     16 C18         30.5680     8.1780    56.6570 ca         1 KB9      -0.148000
     17 C19         30.1810     7.1790    55.7570 ca         1 KB9      -0.028200
     18 C22         30.7080     9.0060    53.0670 c3         1 KB9      -0.093400
     19 C23         31.6330    10.0420    52.4380 c6         1 KB9      -0.055700
     20 C24         30.8220    11.2250    51.9060 c6         1 KB9      -0.073400
     21 C25         31.7120    12.2420    51.2080 c6         1 KB9       0.159800
     22 C27         33.3180    10.5580    50.6370 c6         1 KB9       0.159800
     23 C28         32.5000     9.4680    51.3150 c6         1 KB9      -0.073400
     24 N14         27.5530     7.1550    62.3200 nb         1 KB9      -0.665000
     25 N20         30.5490     6.9730    54.4640 na         1 KB9      -0.022400
     26 N26         32.4420    11.5990    50.1310 n7         1 KB9      -0.804200
     27 O01         30.5490     5.9610    51.7400 o          1 KB9      -0.536100
     28 H1          28.9590     3.5060    53.1810 hc         1 KB9       0.063200
     29 H2          30.0140     3.4170    51.7890 hc         1 KB9       0.063200
     30 H3          27.7130     3.2750    51.0540 hc         1 KB9       0.049200
     31 H4          28.4100     4.7580    50.4470 hc         1 KB9       0.049200
     32 H5          26.0910     5.1200    51.3250 hc         1 KB9       0.035700
     33 H6          26.5960     4.5580    52.9160 hc         1 KB9       0.035700
     34 H7          27.2450     6.0590    52.2630 hc         1 KB9       0.035700
     35 H8          28.4740     4.4630    54.9470 ha         1 KB9       0.157000
     36 H9          28.0620     5.3640    57.7260 ha         1 KB9       0.137000
     37 H10         30.3880     7.8460    60.6690 ha         1 KB9       0.141000
     38 H11         29.3990     7.8400    62.9130 h4         1 KB9       0.017100
     39 H12         25.7960     6.4730    61.4990 h4         1 KB9       0.017100
     40 H13         26.6030     6.4460    59.1840 ha         1 KB9       0.141000
     41 H14         30.3130     8.9130    58.6260 ha         1 KB9       0.132000
     42 H15         31.2460     8.9740    56.3780 ha         1 KB9       0.138000
     43 H16         32.0390     7.2870    53.0500 h1         1 KB9       0.066200
     44 H17         32.1510     8.2700    54.4860 h1         1 KB9       0.066200
     45 H18         30.0660     9.5020    53.8020 hc         1 KB9       0.056200
     46 H19         30.0450     8.5940    52.3010 hc         1 KB9       0.056200
     47 H20         32.3030    10.4250    53.2210 hc         1 KB9       0.037700
     48 H21         30.2820    11.7070    52.7250 hc         1 KB9       0.049450
     49 H22         30.0700    10.8600    51.1980 hc         1 KB9       0.049450
     50 H23         32.3830    12.7000    51.9550 h1         1 KB9       0.027700
     51 H24         31.1050    13.0490    50.7920 h1         1 KB9       0.027700
     52 H25         33.8830    10.1340    49.8030 h1         1 KB9       0.027700
     53 H26         34.0590    10.9460    51.3560 h1         1 KB9       0.027700
     54 H27         31.8540     8.9860    50.5730 hc         1 KB9       0.049450
     55 H28         33.1760     8.7010    51.6980 hc         1 KB9       0.049450
     56 H29         32.9920    12.2900    49.6360 hn         1 KB9       0.353800
     57 C21         31.4500     7.8660    53.7530 c3         1 KB9       0.048300
@<TRIPOS>BOND
     1     1     2 1   
     2     1     5 1   
     3     1    27 2   
     4     2     3 1   
     5     2    28 1   
     6     2    29 1   
     7     3     4 1   
     8     3    30 1   
     9     3    31 1   
    10     4    32 1   
    11     4    33 1   
    12     4    34 1   
    13     5     6 2   
    14     5    25 1   
    15     6     7 1   
    16     6    35 1   
    17     7     8 ar  
    18     7    17 ar  
    19     8     9 ar  
    20     8    36 1   
    21     9    10 1   
    22     9    15 ar  
    23    10    11 ar  
    24    10    14 ar  
    25    11    12 ar  
    26    11    37 1   
    27    12    24 ar  
    28    12    38 1   
    29    13    14 ar  
    30    13    24 ar  
    31    13    39 1   
    32    14    40 1   
    33    15    16 ar  
    34    15    41 1   
    35    16    17 ar  
    36    16    42 1   
    37    17    25 1   
    38    18    19 1   
    39    18    45 1   
    40    18    46 1   
    41    18    57 1   
    42    19    20 1   
    43    19    23 1   
    44    19    47 1   
    45    20    21 1   
    46    20    48 1   
    47    20    49 1   
    48    21    26 1   
    49    21    50 1   
    50    21    51 1   
    51    22    23 1   
    52    22    26 1   
    53    22    52 1   
    54    22    53 1   
    55    23    54 1   
    56    23    55 1   
    57    25    57 1   
    58    26    56 1   
    59    43    57 1   
    60    44    57 1   
@<TRIPOS>SUBSTRUCTURE
     1 KB9         1 TEMP              0 ****  ****    0 ROOT
