@<TRIPOS>MOLECULE
KBA
   35    36     1     0     0
SMALL
No Charge or Current Charge


@<TRIPOS>ATOM
      1 C04         -1.2820    -0.3670     0.4350 c3         1 KBA       0.145600
      2 C05         -2.2540    -0.8470    -0.6540 c3         1 KBA       0.073600
      3 C06         -4.2210     0.7660    -0.8070 cc         1 KBA      -0.215000
      4 C07         -5.4950     0.6670    -0.3230 cd         1 KBA       0.191900
      5 C1           1.0990    -0.4640     0.9860 c6         1 KBA       0.358300
      6 C2           2.4320    -1.1800     0.5730 c6         1 KBA       0.117300
      7 C3           2.9870    -0.5600    -0.7480 c6         1 KBA       0.188300
      8 C4           3.1380     0.9900    -0.6060 c6         1 KBA       0.149300
      9 C5           1.7240     1.5510    -0.2390 c6         1 KBA       0.133300
     10 C6           1.6890     3.0910    -0.0650 c3         1 KBA      -0.093100
     11 N01         -3.6370    -0.4110    -0.4110 na         1 KBA       0.119800
     12 N02         -5.6370    -0.5380     0.3350 nd         1 KBA      -0.356000
     13 N03         -4.5090    -1.1940     0.2830 nc         1 KBA      -0.205800
     14 O03          0.0360    -0.8240     0.0810 os         1 KBA      -0.476000
     15 O2           2.2420    -2.6100     0.4120 oh         1 KBA      -0.712000
     16 O3           4.2230    -1.2030    -1.1150 oh         1 KBA      -0.643000
     17 O4           4.1280     1.3320     0.3980 oh         1 KBA      -0.697000
     18 O5           1.2590     0.9750     1.0050 os         1 KBA      -0.465000
     19 H1          -1.3140     0.7290     0.4920 h1         1 KBA       0.045700
     20 H2          -1.5880    -0.7750     1.4080 h1         1 KBA       0.045700
     21 H3          -1.9310    -0.4540    -1.6260 h1         1 KBA       0.081200
     22 H4          -2.2310    -1.9420    -0.7060 h1         1 KBA       0.081200
     23 H5          -3.7160     1.5390    -1.3700 h4         1 KBA       0.166000
     24 H6          -6.3070     1.3790    -0.4070 h4         1 KBA       0.050100
     25 H7           0.8300    -0.8020     1.9980 h2         1 KBA       0.070700
     26 H8           3.1640    -0.9910     1.3730 h1         1 KBA       0.078700
     27 H9           2.2440    -0.7450    -1.5390 h1         1 KBA       0.052700
     28 H10          3.4330     1.4000    -1.5840 h1         1 KBA       0.048700
     29 H11          1.0150     1.2930    -1.0400 h1         1 KBA       0.046700
     30 H12          2.0590     3.5980    -0.9640 hc         1 KBA       0.047367
     31 H13          0.6640     3.4380     0.1100 hc         1 KBA       0.047367
     32 H14          2.2990     3.4210     0.7850 hc         1 KBA       0.047367
     33 H15          1.3290    -2.7220     0.0490 ho         1 KBA       0.511000
     34 H16          4.1260    -2.1280    -0.7930 ho         1 KBA       0.459000
     35 H17          4.2090     2.3120     0.4010 ho         1 KBA       0.504000
@<TRIPOS>BOND
     1     1     2 1   
     2     1    14 1   
     3     1    19 1   
     4     1    20 1   
     5     2    11 1   
     6     2    21 1   
     7     2    22 1   
     8     3     4 2   
     9     3    11 1   
    10     3    23 1   
    11     4    12 1   
    12     4    24 1   
    13     5     6 1   
    14     5    14 1   
    15     5    18 1   
    16     5    25 1   
    17     6     7 1   
    18     6    15 1   
    19     6    26 1   
    20     7     8 1   
    21     7    16 1   
    22     7    27 1   
    23     8     9 1   
    24     8    17 1   
    25     8    28 1   
    26     9    10 1   
    27     9    18 1   
    28     9    29 1   
    29    10    30 1   
    30    10    31 1   
    31    10    32 1   
    32    11    13 1   
    33    12    13 2   
    34    15    33 1   
    35    16    34 1   
    36    17    35 1   
@<TRIPOS>SUBSTRUCTURE
     1 KBA         1 TEMP              0 ****  ****    0 ROOT
