@<TRIPOS>MOLECULE
KBA
   35    36     1     0     0
SMALL
bcc


@<TRIPOS>ATOM
      1 C04         -1.2830    -0.2200     0.2960 c3         1 KBA       0.122400
      2 C05         -2.2540    -0.9310    -0.6350 c3         1 KBA       0.044300
      3 C06         -4.2570     0.5220    -1.0760 cc         1 KBA      -0.247600
      4 C07         -5.4680     0.5920    -0.4410 cd         1 KBA       0.257200
      5 C1           0.9960    -0.4060     0.8980 c6         1 KBA       0.311900
      6 C2           2.2720    -1.1380     0.4690 c6         1 KBA       0.094100
      7 C3           2.8380    -0.5030    -0.7970 c6         1 KBA       0.165100
      8 C4           3.0550     0.9870    -0.5760 c6         1 KBA       0.126100
      9 C5           1.7350     1.6150    -0.1230 c6         1 KBA       0.110100
     10 C6           1.8600     3.0880     0.2100 c3         1 KBA      -0.093100
     11 N01         -3.6070    -0.4600    -0.4280 na         1 KBA       0.098400
     12 N02         -5.4790    -0.3340     0.5410 nd         1 KBA      -0.356000
     13 N03         -4.3530    -0.9590     0.5430 nc         1 KBA      -0.205800
     14 O03          0.0020    -0.6860    -0.0390 os         1 KBA      -0.429600
     15 O2           2.0380    -2.4990     0.2060 oh         1 KBA      -0.589800
     16 O3           4.0540    -1.0910    -1.1810 oh         1 KBA      -0.580800
     17 O4           4.0860     1.1490     0.3680 oh         1 KBA      -0.574800
     18 O5           1.2310     0.9630     1.0380 os         1 KBA      -0.418600
     19 H1          -1.3710     0.8640     0.1650 h1         1 KBA       0.045700
     20 H2          -1.5290    -0.4510     1.3400 h1         1 KBA       0.045700
     21 H3          -1.9910    -0.7460    -1.6760 h1         1 KBA       0.081200
     22 H4          -2.2390    -2.0060    -0.4650 h1         1 KBA       0.081200
     23 H5          -3.8300     1.0640    -1.9030 h4         1 KBA       0.184000
     24 H6          -6.3070     1.2360    -0.6410 h4         1 KBA       0.050100
     25 H7           0.6800    -0.7460     1.8950 h2         1 KBA       0.070700
     26 H8           3.0000    -1.0120     1.2810 h1         1 KBA       0.078700
     27 H9           2.0910    -0.6020    -1.5990 h1         1 KBA       0.052700
     28 H10          3.3230     1.4480    -1.5380 h1         1 KBA       0.048700
     29 H11          1.0260     1.5080    -0.9550 h1         1 KBA       0.046700
     30 H12          2.2370     3.6380    -0.6530 hc         1 KBA       0.047367
     31 H13          0.8890     3.5090     0.4690 hc         1 KBA       0.047367
     32 H14          2.5340     3.2630     1.0490 hc         1 KBA       0.047367
     33 H15          1.9760    -2.9710     1.0420 ho         1 KBA       0.412000
     34 H16          3.8930    -2.0290    -1.3310 ho         1 KBA       0.420000
     35 H17          4.3570     2.0710     0.3730 ho         1 KBA       0.405000
@<TRIPOS>BOND
     1     1     2 1   
     2     1    14 1   
     3     1    19 1   
     4     1    20 1   
     5     2    11 1   
     6     2    21 1   
     7     2    22 1   
     8     3     4 2   
     9     3    11 1   
    10     3    23 1   
    11     4    12 1   
    12     4    24 1   
    13     5     6 1   
    14     5    14 1   
    15     5    18 1   
    16     5    25 1   
    17     6     7 1   
    18     6    15 1   
    19     6    26 1   
    20     7     8 1   
    21     7    16 1   
    22     7    27 1   
    23     8     9 1   
    24     8    17 1   
    25     8    28 1   
    26     9    10 1   
    27     9    18 1   
    28     9    29 1   
    29    10    30 1   
    30    10    31 1   
    31    10    32 1   
    32    11    13 1   
    33    12    13 2   
    34    15    33 1   
    35    16    34 1   
    36    17    35 1   
@<TRIPOS>SUBSTRUCTURE
     1 KBA         1 TEMP              0 ****  ****    0 ROOT
