@<TRIPOS>MOLECULE
KBB
   17    17     1     0     0
SMALL
No Charge or Current Charge


@<TRIPOS>ATOM
      1 C4         -24.4540     3.9350    15.1800 ca         1 KBB      -0.151000
      2 C5         -25.0080     2.8450    15.8730 ca         1 KBB       0.265000
      3 C3         -25.2900     4.8790    14.5540 ca         1 KBB      -0.073000
      4 N          -26.9070     0.0630    15.7990 n8         1 KBB      -1.017100
      5 C          -26.4070     2.6900    15.9480 ca         1 KBB      -0.295500
      6 O          -28.5830     1.4430    16.8970 o          1 KBB      -0.536500
      7 C1         -27.2450     3.6370    15.3120 ca         1 KBB      -0.034000
      8 C2         -26.6830     4.7240    14.6220 ca         1 KBB       0.135000
      9 F          -27.4890     5.6260    14.0190 f          1 KBB      -0.169000
     10 F1         -24.1700     1.9530    16.4470 f          1 KBB      -0.147000
     11 O1         -26.3300     0.9360    17.9890 o          1 KBB      -0.536500
     12 S          -27.1300     1.3080    16.8250 sy         1 KBB       1.150600
     13 H1         -23.3740     4.0450    15.1270 ha         1 KBB       0.142000
     14 H2         -24.8620     5.7220    14.0180 ha         1 KBB       0.140000
     15 H3         -26.4140    -0.5840    16.4100 hn         1 KBB       0.482000
     16 H4         -27.8450    -0.3310    15.7860 hn         1 KBB       0.482000
     17 H5         -28.3290     3.5400    15.3480 ha         1 KBB       0.163000
@<TRIPOS>BOND
     1     1     2 ar  
     2     1     3 ar  
     3     1    13 1   
     4     2     5 ar  
     5     2    10 1   
     6     3     8 ar  
     7     3    14 1   
     8     4    12 1   
     9     4    15 1   
    10     4    16 1   
    11     5     7 ar  
    12     5    12 1   
    13     6    12 2   
    14     7     8 ar  
    15     7    17 1   
    16     8     9 1   
    17    11    12 2   
@<TRIPOS>SUBSTRUCTURE
     1 KBB         1 TEMP              0 ****  ****    0 ROOT
