@<TRIPOS>MOLECULE
KBB
   17    17     1     0     0
SMALL
bcc


@<TRIPOS>ATOM
      1 C4         -24.5010     3.8480    15.1100 ca         1 KBB      -0.169000
      2 C5         -25.0610     2.7960    15.8060 ca         1 KBB       0.229900
      3 C3         -25.3280     4.8110    14.5520 ca         1 KBB      -0.091000
      4 N          -26.7000     0.0560    15.9820 n8         1 KBB      -0.906700
      5 C          -26.4360     2.6860    15.9520 ca         1 KBB      -0.295500
      6 O          -28.5850     1.5670    16.8860 o          1 KBB      -0.607300
      7 C1         -27.2700     3.6460    15.3950 ca         1 KBB      -0.052000
      8 C2         -26.6960     4.6920    14.7020 ca         1 KBB       0.099900
      9 F          -27.4940     5.6200    14.1610 f          1 KBB      -0.133900
     10 F1         -24.2640     1.8700    16.3350 f          1 KBB      -0.111900
     11 O1         -26.4570     1.2350    18.1570 o          1 KBB      -0.607300
     12 S          -27.1460     1.3540    16.8850 sy         1 KBB       1.292200
     13 H1         -23.4270     3.9170    15.0050 ha         1 KBB       0.160000
     14 H2         -24.9050     5.6440    14.0060 ha         1 KBB       0.158000
     15 H3         -26.6030    -0.7850    16.5430 hn         1 KBB       0.426800
     16 H4         -27.3020    -0.1050    15.1820 hn         1 KBB       0.426800
     17 H5         -28.3450     3.5800    15.4960 ha         1 KBB       0.181000
@<TRIPOS>BOND
     1     1     2 ar  
     2     1     3 ar  
     3     1    13 1   
     4     2     5 ar  
     5     2    10 1   
     6     3     8 ar  
     7     3    14 1   
     8     4    12 1   
     9     4    15 1   
    10     4    16 1   
    11     5     7 ar  
    12     5    12 1   
    13     6    12 2   
    14     7     8 ar  
    15     7    17 1   
    16     8     9 1   
    17    11    12 2   
@<TRIPOS>SUBSTRUCTURE
     1 KBB         1 TEMP              0 ****  ****    0 ROOT
