@<TRIPOS>MOLECULE
KBD
   50    53     1     0     0
SMALL
bcc


@<TRIPOS>ATOM
      1 N1          -2.2210    -3.2550    -1.0110 ns         1 KBD      -0.524400
      2 N3          -2.3290    -0.9160    -1.2220 nc         1 KBD      -0.703100
      3 C4          -1.5480    -0.9210    -0.1350 cc         1 KBD       0.148800
      4 C5          -1.0710    -2.0070     0.5730 cd         1 KBD       0.149800
      5 C6          -1.3980    -3.3160     0.1210 c          1 KBD       0.663000
      6 C7           4.6840     0.2500     0.3740 c3         1 KBD       0.166300
      7 C8          -0.2850    -0.3030     1.5460 cc         1 KBD       0.412400
      8 C15          4.0700    -0.9540    -0.2970 ca         1 KBD      -0.130300
      9 C17          3.9820    -2.4970    -2.1570 ca         1 KBD      -0.131000
     10 C20          2.9960    -1.6240     0.2850 ca         1 KBD      -0.109000
     11 C1           2.9740     1.9180     0.9260 c          1 KBD       0.769100
     12 C16          4.5550    -1.4010    -1.5230 ca         1 KBD      -0.109000
     13 C18          2.9150    -3.1610    -1.5670 ca         1 KBD      -0.123000
     14 C19          2.4240    -2.7210    -0.3430 ca         1 KBD      -0.131000
     15 O2           2.6170     1.3870     1.9580 o          1 KBD      -0.602000
     16 C2          -2.6510    -2.1180    -1.6320 cd         1 KBD       0.735800
     17 N2          -3.4620    -2.2700    -2.6880 nv         1 KBD      -0.934800
     18 N4           3.9570     1.4760     0.1260 ns         1 KBD      -0.557900
     19 C11         -1.2160     1.5410     0.0990 c5         1 KBD       0.262800
     20 C12         -1.6960     2.4730     1.2090 c5         1 KBD       0.060100
     21 C3          -1.1980     3.8260     0.6890 c5         1 KBD       0.088100
     22 C9           0.1370     3.4330     0.0660 c5         1 KBD       0.120100
     23 C10          1.2910     3.5970     1.0390 c3         1 KBD       0.142400
     24 N7          -0.2830    -1.5960     1.6190 nd         1 KBD      -0.602000
     25 N9          -1.0460     0.1730     0.5040 na         1 KBD      -0.204900
     26 O1          -3.0800     2.3720     1.3530 oh         1 KBD      -0.572800
     27 O3          -2.0400     4.3170    -0.3210 oh         1 KBD      -0.581800
     28 O4           0.0150     2.0640    -0.3220 os         1 KBD      -0.395600
     29 O5           2.4700     3.0700     0.4520 os         1 KBD      -0.431900
     30 O6          -1.0500    -4.3920     0.5790 o          1 KBD      -0.598500
     31 H2           4.7490     0.0950     1.4500 h1         1 KBD       0.062700
     32 H3           5.7030     0.3950     0.0140 h1         1 KBD       0.062700
     33 H4           0.2610     0.3570     2.2010 h5         1 KBD       0.074100
     34 H5           4.3720    -2.8330    -3.1090 ha         1 KBD       0.139000
     35 H6           2.6040    -1.2910     1.2370 ha         1 KBD       0.137500
     36 H7           5.3910    -0.8900    -1.9870 ha         1 KBD       0.137500
     37 H8           2.4710    -4.0180    -2.0560 ha         1 KBD       0.128000
     38 H9           1.5970    -3.2370     0.1280 ha         1 KBD       0.139000
     39 H10         -3.5570    -3.1600    -3.1450 hn         1 KBD       0.445800
     40 H11         -3.6560    -1.4560    -3.2480 hn         1 KBD       0.445800
     41 H12          4.1160     1.9480    -0.7500 hn         1 KBD       0.328500
     42 H13         -1.9450     1.5270    -0.7190 h2         1 KBD       0.116700
     43 H14         -1.1750     2.2370     2.1450 h1         1 KBD       0.059700
     44 H15         -1.0730     4.5540     1.5010 h1         1 KBD       0.055700
     45 H16          0.3340     4.0330    -0.8280 h1         1 KBD       0.100700
     46 H17          1.4610     4.6600     1.2180 h1         1 KBD       0.065700
     47 H18          1.0840     3.1240     2.0010 h1         1 KBD       0.065700
     48 H19         -3.3290     2.7020     2.2230 ho         1 KBD       0.417000
     49 H20         -2.9490     4.2620    -0.0030 ho         1 KBD       0.424000
     50 H21         -2.5010    -4.1480    -1.3970 hn         1 KBD       0.321500
@<TRIPOS>BOND
     1     1     5 1   
     2     1    16 1   
     3     1    50 1   
     4     2     3 1   
     5     2    16 2   
     6     3     4 2   
     7     3    25 1   
     8     4     5 1   
     9     4    24 1   
    10     5    30 2   
    11     6     8 1   
    12     6    18 1   
    13     6    31 1   
    14     6    32 1   
    15     7    24 2   
    16     7    25 1   
    17     7    33 1   
    18     8    10 ar  
    19     8    12 ar  
    20     9    12 ar  
    21     9    13 ar  
    22     9    34 1   
    23    10    14 ar  
    24    10    35 1   
    25    11    15 2   
    26    11    18 1   
    27    11    29 1   
    28    12    36 1   
    29    13    14 ar  
    30    13    37 1   
    31    14    38 1   
    32    16    17 1   
    33    17    39 1   
    34    17    40 1   
    35    18    41 1   
    36    19    20 1   
    37    19    25 1   
    38    19    28 1   
    39    19    42 1   
    40    20    21 1   
    41    20    26 1   
    42    20    43 1   
    43    21    22 1   
    44    21    27 1   
    45    21    44 1   
    46    22    23 1   
    47    22    28 1   
    48    22    45 1   
    49    23    29 1   
    50    23    46 1   
    51    23    47 1   
    52    26    48 1   
    53    27    49 1   
@<TRIPOS>SUBSTRUCTURE
     1 KBD         1 TEMP              0 ****  ****    0 ROOT
