@<TRIPOS>MOLECULE
KBD
   50    53     1     0     0
SMALL
No Charge or Current Charge


@<TRIPOS>ATOM
      1 N1          -1.5960    -3.3880    -1.2000 ns         1 KBD      -0.457400
      2 N3          -1.5930    -1.0210    -1.4740 nc         1 KBD      -0.703100
      3 C4          -1.0980    -0.9660    -0.1860 cc         1 KBD       0.163400
      4 C5          -0.8560    -2.0550     0.6160 cd         1 KBD       0.084500
      5 C6          -1.1270    -3.4210     0.0810 c          1 KBD       0.520500
      6 C7           4.3540     0.0090     0.5350 c3         1 KBD       0.166300
      7 C8          -0.3550    -0.3100     1.7850 cc         1 KBD       0.412400
      8 C15          3.4840    -1.0450    -0.1470 ca         1 KBD      -0.130300
      9 C17          2.2840    -1.8700    -2.1100 ca         1 KBD      -0.113000
     10 C20          3.1100    -2.2090     0.5540 ca         1 KBD      -0.091000
     11 C1           2.8500     1.9630     0.9410 c          1 KBD       0.653100
     12 C16          3.0660    -0.8830    -1.4850 ca         1 KBD      -0.091000
     13 C18          1.9240    -3.0320    -1.4080 ca         1 KBD      -0.105000
     14 C19          2.3350    -3.2000    -0.0750 ca         1 KBD      -0.113000
     15 O2           2.2290     1.4690     1.8690 o          1 KBD      -0.553000
     16 C2          -1.7970    -2.2470    -1.8880 cd         1 KBD       0.735800
     17 N2          -2.2650    -2.3580    -3.1170 nv         1 KBD      -1.045200
     18 N4           3.8860     1.3690     0.2840 ns         1 KBD      -0.490900
     19 C11         -0.9970     1.5360     0.1570 c5         1 KBD       0.315300
     20 C12         -1.4310     2.5450     1.2720 c5         1 KBD       0.083300
     21 C3          -1.1470     3.8750     0.5190 c5         1 KBD       0.111300
     22 C9           0.2440     3.5330    -0.1170 c5         1 KBD       0.143300
     23 C10          1.4570     3.9310     0.7860 c3         1 KBD       0.165600
     24 N7          -0.3930    -1.6380     1.8580 nd         1 KBD      -0.602000
     25 N9          -0.7810     0.1450     0.5520 na         1 KBD      -0.183500
     26 O1          -2.8130     2.4340     1.6660 oh         1 KBD      -0.695000
     27 O3          -2.1640     4.1300    -0.4620 oh         1 KBD      -0.704000
     28 O4           0.2210     2.0980    -0.3820 os         1 KBD      -0.442000
     29 O5           2.6400     3.1960     0.3980 os         1 KBD      -0.455100
     30 O6          -0.9680    -4.4710     0.6870 o          1 KBD      -0.523000
     31 H2           4.3750    -0.1650     1.6190 h1         1 KBD       0.062700
     32 H3           5.3830    -0.0810     0.1640 h1         1 KBD       0.062700
     33 H4          -0.0560     0.3600     2.5820 h5         1 KBD       0.074100
     34 H5           1.9650    -1.7370    -3.1410 ha         1 KBD       0.121000
     35 H6           3.4230    -2.3520     1.5860 ha         1 KBD       0.119500
     36 H7           3.3470     0.0060    -2.0440 ha         1 KBD       0.119500
     37 H8           1.3270    -3.8000    -1.8950 ha         1 KBD       0.110000
     38 H9           2.0540    -4.0970     0.4710 ha         1 KBD       0.121000
     39 H10         -2.0140    -3.1930    -3.6300 hn         1 KBD       0.501000
     40 H11         -2.2260    -1.4970    -3.6470 hn         1 KBD       0.501000
     41 H12          4.3060     1.9070    -0.4610 hn         1 KBD       0.328500
     42 H13         -1.7620     1.5140    -0.6290 h2         1 KBD       0.116700
     43 H14         -0.7730     2.4540     2.1480 h1         1 KBD       0.059700
     44 H15         -1.0730     4.7220     1.2160 h1         1 KBD       0.055700
     45 H16          0.3670     4.0580    -1.0740 h1         1 KBD       0.100700
     46 H17          1.6270     5.0080     0.6580 h1         1 KBD       0.065700
     47 H18          1.2160     3.7700     1.8450 h1         1 KBD       0.065700
     48 H19         -2.8980     2.7990     2.5810 ho         1 KBD       0.516000
     49 H20         -2.9980     3.7830    -0.0590 ho         1 KBD       0.523000
     50 H21         -1.8240    -4.2750    -1.6190 hn         1 KBD       0.321500
@<TRIPOS>BOND
     1     1     5 1   
     2     1    16 1   
     3     1    50 1   
     4     2     3 1   
     5     2    16 2   
     6     3     4 2   
     7     3    25 1   
     8     4     5 1   
     9     4    24 1   
    10     5    30 2   
    11     6     8 1   
    12     6    18 1   
    13     6    31 1   
    14     6    32 1   
    15     7    24 2   
    16     7    25 1   
    17     7    33 1   
    18     8    10 ar  
    19     8    12 ar  
    20     9    12 ar  
    21     9    13 ar  
    22     9    34 1   
    23    10    14 ar  
    24    10    35 1   
    25    11    15 2   
    26    11    18 1   
    27    11    29 1   
    28    12    36 1   
    29    13    14 ar  
    30    13    37 1   
    31    14    38 1   
    32    16    17 1   
    33    17    39 1   
    34    17    40 1   
    35    18    41 1   
    36    19    20 1   
    37    19    25 1   
    38    19    28 1   
    39    19    42 1   
    40    20    21 1   
    41    20    26 1   
    42    20    43 1   
    43    21    22 1   
    44    21    27 1   
    45    21    44 1   
    46    22    23 1   
    47    22    28 1   
    48    22    45 1   
    49    23    29 1   
    50    23    46 1   
    51    23    47 1   
    52    26    48 1   
    53    27    49 1   
@<TRIPOS>SUBSTRUCTURE
     1 KBD         1 TEMP              0 ****  ****    0 ROOT
