@<TRIPOS>MOLECULE
KBE
   23    22     1     0     0
SMALL
No Charge or Current Charge


@<TRIPOS>ATOM
      1 C           -2.7820     0.0630     0.3430 c          1 KBE       0.711000
      2 N           -0.3890    -1.1480    -1.1120 n8         1 KBE      -1.010200
      3 O           -3.0450     0.0810     1.5350 o          1 KBE      -0.739500
      4 CA          -1.5200     0.7970    -0.1300 c3         1 KBE      -0.243400
      5 CB          -0.2960    -0.1390    -0.0450 c3         1 KBE       0.176500
      6 CE           3.6150     0.5760     0.0480 c3         1 KBE       0.143800
      7 CG           1.0480     0.6340    -0.1310 c3         1 KBE      -0.071400
      8 NZ           4.7990    -0.2760     0.2610 n8         1 KBE      -0.997200
      9 OXT         -3.4440    -0.5400    -0.4880 o          1 KBE      -0.739500
     10 HN          -1.3760    -1.4190    -1.1930 hn         1 KBE       0.395000
     11 HNA         -0.2040    -0.6850    -2.0070 hn         1 KBE       0.395000
     12 HA          -1.6150     1.1130    -1.1780 hc         1 KBE       0.021200
     13 HAA         -1.3090     1.6290     0.5530 hc         1 KBE       0.021200
     14 HB          -0.3320    -0.6560     0.9270 h1         1 KBE       0.065700
     15 HD           2.3510    -1.0160    -0.6950 hc         1 KBE       0.051700
     16 HDA          2.2280    -0.7570     1.0460 hc         1 KBE       0.051700
     17 HE           3.7150     1.0770    -0.9240 h1         1 KBE       0.018200
     18 HEA          3.5920     1.3430     0.8350 h1         1 KBE       0.018200
     19 HG           1.1180     1.1420    -1.1010 hc         1 KBE       0.021200
     20 HGA          1.0500     1.4220     0.6330 hc         1 KBE       0.021200
     21 HNZ          4.8720    -0.9430    -0.5170 hn         1 KBE       0.380500
     22 HNZA         5.6450     0.2990     0.1680 hn         1 KBE       0.380500
     23 CD           2.3080    -0.2420     0.0810 c3         1 KBE      -0.072400
@<TRIPOS>BOND
     1     1     3 1   
     2     1     4 1   
     3     1     9 1   
     4     2     5 1   
     5     2    10 1   
     6     2    11 1   
     7     4     5 1   
     8     4    12 1   
     9     4    13 1   
    10     5     7 1   
    11     5    14 1   
    12     6     8 1   
    13     6    17 1   
    14     6    18 1   
    15     6    23 1   
    16     7    19 1   
    17     7    20 1   
    18     7    23 1   
    19     8    21 1   
    20     8    22 1   
    21    15    23 1   
    22    16    23 1   
@<TRIPOS>SUBSTRUCTURE
     1 KBE         1 TEMP              0 ****  ****    0 ROOT
