@<TRIPOS>MOLECULE
KBE
   23    22     1     0     0
SMALL
bcc


@<TRIPOS>ATOM
      1 C           -2.8400     0.1700     0.0260 c          1 KBE       0.921600
      2 N           -0.2690    -1.3770    -0.7170 n8         1 KBE      -0.899800
      3 O           -2.9190    -0.8340     0.7650 o          1 KBE      -0.844800
      4 CA          -1.4460     0.7750    -0.2180 c3         1 KBE      -0.243400
      5 CB          -0.2560    -0.1420     0.0620 c3         1 KBE       0.176500
      6 CE           3.5810     0.6130    -0.0380 c3         1 KBE       0.143800
      7 CG           1.0550     0.6080    -0.1650 c3         1 KBE      -0.071400
      8 NZ           4.7610    -0.1860     0.2630 n8         1 KBE      -0.886800
      9 OXT         -3.7980     0.7550    -0.5190 o          1 KBE      -0.844800
     10 HN          -1.1430    -1.8510    -0.5280 hn         1 KBE       0.339800
     11 HNA         -0.2890    -1.1420    -1.7040 hn         1 KBE       0.339800
     12 HA          -1.3890     1.1390    -1.2500 hc         1 KBE       0.021200
     13 HAA         -1.3690     1.6720     0.4100 hc         1 KBE       0.021200
     14 HB          -0.2940    -0.4370     1.1170 h1         1 KBE       0.065700
     15 HD           2.3400    -1.0810    -0.4940 hc         1 KBE       0.051700
     16 HDA          2.2650    -0.5650     1.1790 hc         1 KBE       0.051700
     17 HE           3.5870     1.0370    -1.0530 h1         1 KBE       0.018200
     18 HEA          3.5670     1.4660     0.6470 h1         1 KBE       0.018200
     19 HG           1.0930     0.9570    -1.2050 hc         1 KBE       0.021200
     20 HGA          1.0450     1.5130     0.4530 hc         1 KBE       0.021200
     21 HNZ          4.8490    -0.9230    -0.4270 hn         1 KBE       0.325300
     22 HNZA         5.5920     0.3830     0.1560 hn         1 KBE       0.325300
     23 CD           2.3080    -0.1980     0.1480 c3         1 KBE      -0.072400
@<TRIPOS>BOND
     1     1     3 1   
     2     1     4 1   
     3     1     9 1   
     4     2     5 1   
     5     2    10 1   
     6     2    11 1   
     7     4     5 1   
     8     4    12 1   
     9     4    13 1   
    10     5     7 1   
    11     5    14 1   
    12     6     8 1   
    13     6    17 1   
    14     6    18 1   
    15     6    23 1   
    16     7    19 1   
    17     7    20 1   
    18     7    23 1   
    19     8    21 1   
    20     8    22 1   
    21    15    23 1   
    22    16    23 1   
@<TRIPOS>SUBSTRUCTURE
     1 KBE         1 TEMP              0 ****  ****    0 ROOT
