@<TRIPOS>MOLECULE
KBF
   37    39     1     0     0
SMALL
abcg2


@<TRIPOS>ATOM
      1 C3           3.5420     0.0430    -0.1060 ca         1 KBF       0.029000
      2 C4           4.8820     0.5030    -0.1010 ca         1 KBF      -0.116000
      3 C5           5.1580     1.8380     0.0100 ca         1 KBF      -0.086000
      4 C6           4.1150     2.7860     0.1200 ca         1 KBF      -0.126000
      5 C7           2.8130     2.3710     0.1210 ca         1 KBF      -0.078000
      6 C8           2.4960     0.9950     0.0120 ca         1 KBF      -0.093000
      7 C9           1.1670     0.5360     0.0190 ca         1 KBF      -0.022000
      8 C10          0.8550    -0.7990    -0.0880 ca         1 KBF      -0.240600
      9 C1           1.9140    -1.7480    -0.2530 ca         1 KBF       0.204100
     10 O1           1.6640    -3.0510    -0.4090 oh         1 KBF      -0.555100
     11 C2           3.2210    -1.3210    -0.2400 ca         1 KBF      -0.181000
     12 C11         -0.5470    -1.2980    -0.0700 c          1 KBF       0.624700
     13 N           -1.4860    -0.5010     0.4390 ns         1 KBF      -0.471900
     14 C12         -2.8990    -0.8110     0.4620 c3         1 KBF       0.079000
     15 O2          -0.8050    -2.4330    -0.4960 o          1 KBF      -0.651100
     16 C15         -5.8070     1.1060    -0.4180 c5         1 KBF      -0.112400
     17 C14         -5.1900    -0.2910    -0.4900 c5         1 KBF      -0.104400
     18 C13         -3.6780    -0.0180    -0.5780 c5         1 KBF       0.136300
     19 O3          -3.5000     1.3770    -0.3700 os         1 KBF      -0.462000
     20 C16         -4.6790     1.9050     0.2120 c5         1 KBF       0.149600
     21 H2           5.6860    -0.2170    -0.1870 ha         1 KBF       0.118000
     22 H3           6.1860     2.1760     0.0120 ha         1 KBF       0.113000
     23 H4           4.3530     3.8380     0.2040 ha         1 KBF       0.114000
     24 H5           2.0070     3.0900     0.2040 ha         1 KBF       0.111000
     25 H6           0.3860     1.2840     0.0900 ha         1 KBF       0.111000
     26 H22          0.6860    -3.1480    -0.5090 ho         1 KBF       0.519000
     27 H1           4.0150    -2.0490    -0.3480 ha         1 KBF       0.133000
     28 H21         -1.2200     0.3880     0.8270 hn         1 KBF       0.327500
     29 H8          -3.0350    -1.8780     0.2890 h1         1 KBF       0.065700
     30 H7          -3.2810    -0.5930     1.4620 h1         1 KBF       0.065700
     31 H13         -6.7240     1.1370     0.1690 hc         1 KBF       0.058200
     32 H10         -5.4290    -0.8610     0.4120 hc         1 KBF       0.055700
     33 H11         -5.5490    -0.8690    -1.3400 hc         1 KBF       0.055700
     34 H9          -3.2840    -0.2550    -1.5710 h1         1 KBF       0.079700
     35 H15         -4.7220     2.9740     0.0010 h1         1 KBF       0.046200
     36 H14         -4.6780     1.7770     1.3030 h1         1 KBF       0.046200
     37 H12         -6.0310     1.4870    -1.4160 hc         1 KBF       0.058200
@<TRIPOS>BOND
     1     1     2 ar  
     2     1     6 ar  
     3     1    11 ar  
     4     2     3 ar  
     5     2    21 1   
     6     3     4 ar  
     7     3    22 1   
     8     4     5 ar  
     9     4    23 1   
    10     5     6 ar  
    11     5    24 1   
    12     6     7 ar  
    13     7     8 ar  
    14     7    25 1   
    15     8     9 ar  
    16     8    12 1   
    17     9    10 1   
    18     9    11 ar  
    19    10    26 1   
    20    11    27 1   
    21    12    13 1   
    22    12    15 2   
    23    13    14 1   
    24    13    28 1   
    25    14    18 1   
    26    14    29 1   
    27    14    30 1   
    28    16    17 1   
    29    16    20 1   
    30    16    31 1   
    31    16    37 1   
    32    17    18 1   
    33    17    32 1   
    34    17    33 1   
    35    18    19 1   
    36    18    34 1   
    37    19    20 1   
    38    20    35 1   
    39    20    36 1   
@<TRIPOS>SUBSTRUCTURE
     1 KBF         1 TEMP              0 ****  ****    0 ROOT
