@<TRIPOS>MOLECULE
KBF
   37    39     1     0     0
SMALL
No Charge or Current Charge


@<TRIPOS>ATOM
      1 C3           3.5430     0.1130    -0.3250 ca         1 KBF       0.029000
      2 C4           4.8880     0.5020    -0.4620 ca         1 KBF      -0.116000
      3 C5           5.3160     1.7460     0.0320 ca         1 KBF      -0.086000
      4 C6           4.3980     2.6040     0.6620 ca         1 KBF      -0.126000
      5 C7           3.0540     2.2190     0.8000 ca         1 KBF      -0.078000
      6 C8           2.6210     0.9720     0.3070 ca         1 KBF      -0.093000
      7 C9           1.2750     0.5830     0.4440 ca         1 KBF      -0.022000
      8 C10          0.8270    -0.6690    -0.0480 ca         1 KBF      -0.240600
      9 C1           1.7690    -1.5150    -0.6790 ca         1 KBF       0.204100
     10 O1           1.3920    -2.7270    -1.1690 oh         1 KBF      -0.555100
     11 C2           3.1090    -1.1280    -0.8150 ca         1 KBF      -0.181000
     12 C11         -0.6160    -1.1030     0.0890 c          1 KBF       0.624700
     13 N           -1.4790    -0.2350     0.7160 ns         1 KBF      -0.471900
     14 C12         -2.9220    -0.4650     0.8780 c3         1 KBF       0.079000
     15 O2          -1.0030    -2.1850    -0.3350 o          1 KBF      -0.651100
     16 C15         -5.8760     0.8330    -0.7490 c5         1 KBF      -0.112400
     17 C14         -5.2850    -0.5110    -0.2300 c5         1 KBF      -0.104400
     18 C13         -3.7420    -0.3390    -0.4350 c5         1 KBF       0.136300
     19 O3          -3.5870     0.9890    -0.9900 os         1 KBF      -0.462000
     20 C16         -4.6860     1.7860    -0.5210 c5         1 KBF       0.149600
     21 H2           5.6030    -0.1580    -0.9490 ha         1 KBF       0.118000
     22 H3           6.3570     2.0450    -0.0750 ha         1 KBF       0.113000
     23 H4           4.7290     3.5670     1.0440 ha         1 KBF       0.114000
     24 H5           2.3520     2.8900     1.2900 ha         1 KBF       0.111000
     25 H6           0.5910     1.2690     0.9360 ha         1 KBF       0.111000
     26 H22          0.4190    -2.7980    -0.9700 ho         1 KBF       0.519000
     27 H1           3.8120    -1.7970    -1.3040 ha         1 KBF       0.133000
     28 H21         -1.0970     0.6480     1.0260 hn         1 KBF       0.327500
     29 H8          -3.0710    -1.4720     1.2910 h1         1 KBF       0.065700
     30 H7          -3.3070     0.2520     1.6150 h1         1 KBF       0.065700
     31 H13         -6.7760     1.1420    -0.2050 hc         1 KBF       0.058200
     32 H10         -5.5350    -0.6700     0.8250 hc         1 KBF       0.055700
     33 H11         -5.6800    -1.3710    -0.7820 hc         1 KBF       0.055700
     34 H9          -3.3570    -1.0680    -1.1610 h1         1 KBF       0.079700
     35 H15         -4.7580     2.7160    -1.1000 h1         1 KBF       0.046200
     36 H14         -4.5410     2.0280     0.5410 h1         1 KBF       0.046200
     37 H12         -6.1330     0.7760    -1.8130 hc         1 KBF       0.058200
@<TRIPOS>BOND
     1     1     2 ar  
     2     1     6 ar  
     3     1    11 ar  
     4     2     3 ar  
     5     2    21 1   
     6     3     4 ar  
     7     3    22 1   
     8     4     5 ar  
     9     4    23 1   
    10     5     6 ar  
    11     5    24 1   
    12     6     7 ar  
    13     7     8 ar  
    14     7    25 1   
    15     8     9 ar  
    16     8    12 1   
    17     9    10 1   
    18     9    11 ar  
    19    10    26 1   
    20    11    27 1   
    21    12    13 1   
    22    12    15 2   
    23    13    14 1   
    24    13    28 1   
    25    14    18 1   
    26    14    29 1   
    27    14    30 1   
    28    16    17 1   
    29    16    20 1   
    30    16    31 1   
    31    16    37 1   
    32    17    18 1   
    33    17    32 1   
    34    17    33 1   
    35    18    19 1   
    36    18    34 1   
    37    19    20 1   
    38    20    35 1   
    39    20    36 1   
@<TRIPOS>SUBSTRUCTURE
     1 KBF         1 TEMP              0 ****  ****    0 ROOT
