@<TRIPOS>MOLECULE
KBG
   22    22     1     0     0
SMALL
abcg2


@<TRIPOS>ATOM
      1 O4          11.3650    12.8450    18.4750 oh         1 KBG      -0.700000
      2 C4          10.3010    13.3540    19.2330 c6         1 KBG       0.101300
      3 C3          10.5850    14.8080    19.6630 c6         1 KBG       0.039300
      4 O3          11.7100    14.9250    20.4740 oh         1 KBG      -0.618000
      5 C2           9.3790    15.3390    20.3880 c          1 KBG       0.511100
      6 OAG          9.3960    15.7800    21.5080 o          1 KBG      -0.459100
      7 C1           8.0790    15.1880    19.5960 c6         1 KBG       0.304300
      8 O1           6.9870    15.6500    20.2700 oh         1 KBG      -0.616000
      9 O5           7.9390    13.8060    19.3380 os         1 KBG      -0.460000
     10 C5           8.9540    13.2850    18.5000 c6         1 KBG       0.154300
     11 C6           8.5570    11.8880    18.0800 c3         1 KBG       0.177600
     12 O6           8.5060    11.0500    19.2070 oh         1 KBG      -0.704000
     13 HO4         11.4220    13.3290    17.6410 ho         1 KBG       0.496000
     14 H4          10.2500    12.7390    20.1360 h1         1 KBG       0.124700
     15 H3          10.6740    15.4080    18.7380 h1         1 KBG       0.035700
     16 HO3         12.4540    14.5320    20.0060 ho         1 KBG       0.459000
     17 H1           8.1510    15.7390    18.6450 h2         1 KBG       0.074700
     18 HO1          7.1070    15.5240    21.2210 ho         1 KBG       0.476000
     19 H5           9.0230    13.8870    17.5770 h1         1 KBG       0.029700
     20 H61          7.5870    11.9480    17.5690 h1         1 KBG       0.033200
     21 H62          9.2830    11.5400    17.3360 h1         1 KBG       0.033200
     22 HO6          8.3150    10.1560    18.9100 ho         1 KBG       0.508000
@<TRIPOS>BOND
     1     1     2 1   
     2     1    13 1   
     3     2     3 1   
     4     2    10 1   
     5     2    14 1   
     6     3     4 1   
     7     3     5 1   
     8     3    15 1   
     9     4    16 1   
    10     5     6 2   
    11     5     7 1   
    12     7     8 1   
    13     7     9 1   
    14     7    17 1   
    15     8    18 1   
    16     9    10 1   
    17    10    11 1   
    18    10    19 1   
    19    11    12 1   
    20    11    20 1   
    21    11    21 1   
    22    12    22 1   
@<TRIPOS>SUBSTRUCTURE
     1 KBG         1 TEMP              0 ****  ****    0 ROOT
