@<TRIPOS>MOLECULE
KBG
   22    22     1     0     0
SMALL
No Charge or Current Charge


@<TRIPOS>ATOM
      1 O4          11.4270    12.9590    18.3280 oh         1 KBG      -0.700000
      2 C4          10.3540    13.4150    19.1860 c6         1 KBG       0.101300
      3 C3          10.6720    14.8580    19.6910 c6         1 KBG       0.039300
      4 O3          11.8540    14.8430    20.5290 oh         1 KBG      -0.618000
      5 C2           9.4380    15.5230    20.3820 c          1 KBG       0.511100
      6 OAG          9.5340    16.2520    21.3700 o          1 KBG      -0.459100
      7 C1           8.0820    15.2530    19.6360 c6         1 KBG       0.304300
      8 O1           6.9400    15.6090    20.4220 oh         1 KBG      -0.616000
      9 O5           7.9230    13.8550    19.3580 os         1 KBG      -0.460000
     10 C5           8.9540    13.3160    18.4910 c6         1 KBG       0.154300
     11 C6           8.5600    11.8420    18.1350 c3         1 KBG       0.177600
     12 O6           8.3590    11.0000    19.2900 oh         1 KBG      -0.704000
     13 HO4         11.4190    13.5110    17.5110 ho         1 KBG       0.496000
     14 H4          10.2960    12.7680    20.0770 h1         1 KBG       0.124700
     15 H3          10.8600    15.4840    18.8060 h1         1 KBG       0.035700
     16 HO3         12.5020    14.2540    20.0780 ho         1 KBG       0.459000
     17 H1           8.0960    15.8320    18.7000 h2         1 KBG       0.074700
     18 HO1          6.7650    14.8210    20.9790 ho         1 KBG       0.476000
     19 H5           8.9660    13.9000    17.5590 h1         1 KBG       0.029700
     20 H61          7.6380    11.8810    17.5380 h1         1 KBG       0.033200
     21 H62          9.3400    11.4180    17.4880 h1         1 KBG       0.033200
     22 HO6          8.0450    10.1270    18.9570 ho         1 KBG       0.508000
@<TRIPOS>BOND
     1     1     2 1   
     2     1    13 1   
     3     2     3 1   
     4     2    10 1   
     5     2    14 1   
     6     3     4 1   
     7     3     5 1   
     8     3    15 1   
     9     4    16 1   
    10     5     6 2   
    11     5     7 1   
    12     7     8 1   
    13     7     9 1   
    14     7    17 1   
    15     8    18 1   
    16     9    10 1   
    17    10    11 1   
    18    10    19 1   
    19    11    12 1   
    20    11    20 1   
    21    11    21 1   
    22    12    22 1   
@<TRIPOS>SUBSTRUCTURE
     1 KBG         1 TEMP              0 ****  ****    0 ROOT
