@<TRIPOS>MOLECULE
KBH
   27    28     1     0     0
SMALL
No Charge or Current Charge


@<TRIPOS>ATOM
      1 C1          -3.0150    -0.6970     0.1120 ca         1 KBH      -0.150600
      2 C2          -2.2930    -1.8680     0.4300 ca         1 KBH      -0.028000
      3 C3          -0.8880    -1.8650     0.4330 ca         1 KBH      -0.145000
      4 C7           3.4590    -0.8790     1.3680 ca         1 KBH      -0.154500
      5 C8           4.1580    -1.0490     0.1630 ca         1 KBH       0.165000
      6 C9           3.4660    -1.1090    -1.0560 ca         1 KBH      -0.154500
      7 C10          2.0650    -0.9910    -1.0720 ca         1 KBH      -0.060000
      8 C11         -0.8840     0.4760    -0.1850 ca         1 KBH      -0.330500
      9 C12         -2.2960     0.4790    -0.1960 ca         1 KBH       0.008000
     10 F            5.5040    -1.1630     0.1780 f          1 KBH      -0.192000
     11 C6           2.0570    -0.7610     1.3520 ca         1 KBH      -0.060000
     12 C5           1.3410    -0.8010     0.1310 cp         1 KBH      -0.056000
     13 C4          -0.1470    -0.7040     0.1230 cp         1 KBH       0.021000
     14 C           -4.5310    -0.7000     0.1050 c          1 KBH       0.715600
     15 O           -5.1150    -1.7380     0.3790 o          1 KBH      -0.706000
     16 O1          -5.1150     0.3370    -0.1760 o          1 KBH      -0.706000
     17 S            0.0450     1.9970    -0.5600 sy         1 KBH       1.328400
     18 O3          -0.8950     3.0970    -0.8320 o          1 KBH      -0.556500
     19 O2           1.1730     2.1570     0.3710 o          1 KBH      -0.556500
     20 H1          -2.8180    -2.7900     0.6730 ha         1 KBH       0.137000
     21 H2          -0.3600    -2.7840     0.6750 ha         1 KBH       0.100000
     22 H3           4.0000    -0.8400     2.3090 ha         1 KBH       0.123500
     23 H4           4.0140    -1.2490    -1.9850 ha         1 KBH       0.123500
     24 H5           1.5310    -1.0490    -2.0180 ha         1 KBH       0.125500
     25 H6          -2.8370     1.3940    -0.4390 ha         1 KBH       0.165000
     26 H7           1.5170    -0.6320     2.2870 ha         1 KBH       0.125500
     27 F1           0.7080     1.6110    -1.9970 f          1 KBH      -0.280900
@<TRIPOS>BOND
     1     1     2 ar  
     2     1     9 ar  
     3     1    14 1   
     4     2     3 ar  
     5     2    20 1   
     6     3    13 ar  
     7     3    21 1   
     8     4     5 ar  
     9     4    11 ar  
    10     4    22 1   
    11     5     6 ar  
    12     5    10 1   
    13     6     7 ar  
    14     6    23 1   
    15     7    12 ar  
    16     7    24 1   
    17     8     9 ar  
    18     8    13 ar  
    19     8    17 1   
    20     9    25 1   
    21    11    12 ar  
    22    11    26 1   
    23    12    13 1   
    24    14    15 1   
    25    14    16 1   
    26    17    18 2   
    27    17    19 2   
    28    17    27 1   
@<TRIPOS>SUBSTRUCTURE
     1 KBH         1 TEMP              0 ****  ****    0 ROOT
