@<TRIPOS>MOLECULE
KBH
   27    28     1     0     0
SMALL
bcc


@<TRIPOS>ATOM
      1 C1          -2.9530    -0.6840     0.1040 ca         1 KBH      -0.150600
      2 C2          -2.2460    -1.8090     0.5100 ca         1 KBH      -0.046000
      3 C3          -0.8590    -1.8190     0.5250 ca         1 KBH      -0.163000
      4 C7           3.4250    -1.0070     1.3790 ca         1 KBH      -0.172500
      5 C8           4.1030    -1.0650     0.1770 ca         1 KBH       0.129900
      6 C9           3.4520    -1.0050    -1.0390 ca         1 KBH      -0.172500
      7 C10          2.0710    -0.8680    -1.0460 ca         1 KBH      -0.078000
      8 C11         -0.8460     0.4270    -0.2440 ca         1 KBH      -0.330500
      9 C12         -2.2350     0.4440    -0.2690 ca         1 KBH      -0.010000
     10 F            5.4390    -1.1950     0.1920 f          1 KBH      -0.156900
     11 C6           2.0450    -0.8750     1.3540 ca         1 KBH      -0.078000
     12 C5           1.3590    -0.7960     0.1460 cp         1 KBH      -0.056000
     13 C4          -0.1200    -0.7060     0.1420 cp         1 KBH       0.021000
     14 C           -4.4790    -0.6710     0.0760 c          1 KBH       0.926200
     15 O           -5.0410    -1.7260     0.4160 o          1 KBH      -0.811300
     16 O1          -5.0120     0.3940    -0.2840 o          1 KBH      -0.811300
     17 S           -0.0340     1.9420    -0.6120 sy         1 KBH       1.470000
     18 O3          -0.9920     3.0060    -0.7580 o          1 KBH      -0.627300
     19 O2           1.1520     2.1290     0.1780 o          1 KBH      -0.627300
     20 H1          -2.7860    -2.6950     0.8160 ha         1 KBH       0.155000
     21 H2          -0.3310    -2.7130     0.8320 ha         1 KBH       0.118000
     22 H3           3.9610    -1.0630     2.3170 ha         1 KBH       0.141500
     23 H4           4.0080    -1.0690    -1.9650 ha         1 KBH       0.141500
     24 H5           1.5510    -0.8440    -1.9940 ha         1 KBH       0.143500
     25 H6          -2.7770     1.3300    -0.5690 ha         1 KBH       0.183000
     26 H7           1.5000    -0.8240     2.2880 ha         1 KBH       0.143500
     27 F1           0.4860     1.6430    -2.1000 f          1 KBH      -0.280900
@<TRIPOS>BOND
     1     1     2 ar  
     2     1     9 ar  
     3     1    14 1   
     4     2     3 ar  
     5     2    20 1   
     6     3    13 ar  
     7     3    21 1   
     8     4     5 ar  
     9     4    11 ar  
    10     4    22 1   
    11     5     6 ar  
    12     5    10 1   
    13     6     7 ar  
    14     6    23 1   
    15     7    12 ar  
    16     7    24 1   
    17     8     9 ar  
    18     8    13 ar  
    19     8    17 1   
    20     9    25 1   
    21    11    12 ar  
    22    11    26 1   
    23    12    13 1   
    24    14    15 1   
    25    14    16 1   
    26    17    18 2   
    27    17    19 2   
    28    17    27 1   
@<TRIPOS>SUBSTRUCTURE
     1 KBH         1 TEMP              0 ****  ****    0 ROOT
