@<TRIPOS>MOLECULE
KBI
   55    59     1     0     0
SMALL
No Charge or Current Charge


@<TRIPOS>ATOM
      1 C1           2.7740     0.0810     0.4650 ca         1 KBI       0.395900
      2 F1          -5.0040     0.7900    -1.7130 f          1 KBI      -0.156500
      3 N1           2.6100    -1.2580     0.5520 nb         1 KBI      -0.256000
      4 O1           9.3490    -1.3080    -0.4910 oh         1 KBI      -0.659000
      5 C2           0.5410     0.5360     0.3150 ca         1 KBI       0.153500
      6 F2          -7.5140    -2.8530     0.0140 f          1 KBI      -0.165000
      7 N2           1.8030     1.0070     0.3490 nb         1 KBI      -0.267000
      8 O2          -3.1550     3.1670    -0.1660 os         1 KBI      -0.459000
      9 C3           0.2650    -0.8090     0.3960 ca         1 KBI      -0.045600
     10 F3          -3.3450    -1.7900     2.0040 f          1 KBI      -0.156500
     11 N3          -0.6560     1.1950     0.1930 na         1 KBI      -0.326300
     12 C4           1.3390    -1.7120     0.5150 ca         1 KBI       0.195900
     13 N4          -1.0910    -1.0810     0.3380 nc         1 KBI      -0.605100
     14 C5          -1.5920     0.1500     0.2530 cd         1 KBI       0.669700
     15 N5          -2.9180     0.3610     0.0910 nu         1 KBI      -0.931200
     16 C6          -4.0640    -0.4770     0.1000 ca         1 KBI       0.194000
     17 N6           4.0640     0.5900     0.5040 nu         1 KBI      -0.929100
     18 C7           5.3110    -0.1940     0.4860 c6         1 KBI       0.246500
     19 C8           6.4730     0.6850     1.0170 c6         1 KBI      -0.089900
     20 C9           7.8250    -0.0710     0.9540 c6         1 KBI      -0.090400
     21 C10          8.1300    -0.5620    -0.4840 c6         1 KBI       0.168300
     22 C11          6.9690    -1.4370    -1.0230 c6         1 KBI      -0.090400
     23 C12          5.6160    -0.6810    -0.9570 c6         1 KBI      -0.089900
     24 C13         -0.8720     2.6290    -0.0740 c5         1 KBI       0.059300
     25 C14         -2.0300     3.2990     0.7210 c5         1 KBI       0.122600
     26 C15         -2.6820     3.5810    -1.4570 c5         1 KBI       0.137600
     27 C16         -1.2740     2.9310    -1.5600 c5         1 KBI      -0.137400
     28 C17         -4.2470    -1.5470     1.0240 ca         1 KBI       0.229500
     29 C18         -5.4040    -2.3430     0.9880 ca         1 KBI      -0.215500
     30 C19         -6.4030    -2.0870     0.0430 ca         1 KBI       0.228000
     31 C20         -6.2630    -1.0290    -0.8600 ca         1 KBI      -0.215500
     32 C21         -5.1100    -0.2290    -0.8270 ca         1 KBI       0.229500
     33 H4           1.1860    -2.7880     0.5820 h4         1 KBI       0.035100
     34 HN5         -3.0880     1.3300    -0.1960 hn         1 KBI       0.546000
     35 HN6          4.1280     1.6050     0.4310 hn         1 KBI       0.498000
     36 H7           5.2250    -1.0710     1.1490 h1         1 KBI       0.083700
     37 H8           6.5450     1.6100     0.4270 hc         1 KBI       0.047950
     38 H8A          6.2680     0.9880     2.0530 hc         1 KBI       0.047950
     39 H9           8.6330     0.5880     1.3020 hc         1 KBI       0.053200
     40 H9A          7.8010    -0.9260     1.6440 hc         1 KBI       0.053200
     41 H10          8.2330     0.3200    -1.1350 h1         1 KBI       0.025700
     42 H11          7.1730    -1.7340    -2.0600 hc         1 KBI       0.053200
     43 H11A         6.8990    -2.3650    -0.4390 hc         1 KBI       0.053200
     44 H12          4.8130    -1.3400    -1.3110 hc         1 KBI       0.047950
     45 H12A         5.6420     0.1770    -1.6430 hc         1 KBI       0.047950
     46 H13          0.0600     3.1600     0.1680 h1         1 KBI       0.104700
     47 H14         -1.8360     4.3660     0.9000 h1         1 KBI       0.070700
     48 H14A        -2.2360     2.8110     1.6830 h1         1 KBI       0.070700
     49 H15         -3.3730     3.2440    -2.2420 h1         1 KBI       0.058700
     50 H15A        -2.6250     4.6780    -1.4800 h1         1 KBI       0.058700
     51 H16         -0.5620     3.6070    -2.0460 hc         1 KBI       0.073200
     52 H16A        -1.3050     2.0190    -2.1670 hc         1 KBI       0.073200
     53 H18         -5.5290    -3.1510     1.7030 ha         1 KBI       0.156000
     54 H20         -7.0460    -0.8250    -1.5850 ha         1 KBI       0.156000
     55 HO1          9.5440    -1.5200    -1.4310 ho         1 KBI       0.442000
@<TRIPOS>BOND
     1     1     3 ar  
     2     1     7 ar  
     3     1    17 1   
     4     2    32 1   
     5     3    12 ar  
     6     4    21 1   
     7     4    55 1   
     8     5     7 ar  
     9     5     9 ar  
    10     5    11 1   
    11     6    30 1   
    12     8    25 1   
    13     8    26 1   
    14     9    12 ar  
    15     9    13 1   
    16    10    28 1   
    17    11    14 1   
    18    11    24 1   
    19    12    33 1   
    20    13    14 2   
    21    14    15 1   
    22    15    16 1   
    23    15    34 1   
    24    16    28 ar  
    25    16    32 ar  
    26    17    18 1   
    27    17    35 1   
    28    18    19 1   
    29    18    23 1   
    30    18    36 1   
    31    19    20 1   
    32    19    37 1   
    33    19    38 1   
    34    20    21 1   
    35    20    39 1   
    36    20    40 1   
    37    21    22 1   
    38    21    41 1   
    39    22    23 1   
    40    22    42 1   
    41    22    43 1   
    42    23    44 1   
    43    23    45 1   
    44    24    25 1   
    45    24    27 1   
    46    24    46 1   
    47    25    47 1   
    48    25    48 1   
    49    26    27 1   
    50    26    49 1   
    51    26    50 1   
    52    27    51 1   
    53    27    52 1   
    54    28    29 ar  
    55    29    30 ar  
    56    29    53 1   
    57    30    31 ar  
    58    31    32 ar  
    59    31    54 1   
@<TRIPOS>SUBSTRUCTURE
     1 KBI         1 TEMP              0 ****  ****    0 ROOT
