@<TRIPOS>MOLECULE
KBI
   55    59     1     0     0
SMALL
bcc


@<TRIPOS>ATOM
      1 C1           2.6840     0.1770     0.1810 ca         1 KBI       0.921900
      2 F1          -4.6780     0.1590    -2.0420 f          1 KBI      -0.121400
      3 N1           2.5050    -1.1470     0.2360 nb         1 KBI      -0.782000
      4 O1           9.1490    -1.4780    -0.1170 oh         1 KBI      -0.596800
      5 C2           0.5030     0.5840     0.1050 ca         1 KBI       0.481800
      6 F2          -6.8870    -3.2960     0.1910 f          1 KBI      -0.129900
      7 N2           1.7070     1.1000     0.1000 nb         1 KBI      -0.793000
      8 O2          -3.0350     3.4500     0.1200 os         1 KBI      -0.412600
      9 C3           0.1800    -0.7770     0.1740 ca         1 KBI      -0.176200
     10 F3          -3.3540    -1.0600     2.2620 f          1 KBI      -0.121400
     11 N3          -0.6930     1.2470     0.0520 na         1 KBI      -0.297000
     12 C4           1.2620    -1.6260     0.2350 ca         1 KBI       0.524200
     13 N4          -1.1880    -0.9490     0.1580 nc         1 KBI      -0.605100
     14 C5          -1.6630     0.2600     0.0880 cd         1 KBI       0.669700
     15 N5          -2.9790     0.5760     0.0590 nu         1 KBI      -0.737600
     16 C6          -3.9620    -0.4150     0.1020 ca         1 KBI       0.055600
     17 N6           3.9470     0.6540     0.2340 nu         1 KBI      -0.873900
     18 C7           5.1370    -0.1650     0.2780 c6         1 KBI       0.246500
     19 C8           6.2450     0.5770     1.0200 c6         1 KBI      -0.089900
     20 C9           7.5130    -0.2660     1.1050 c6         1 KBI      -0.090400
     21 C10          7.9870    -0.6900    -0.2770 c6         1 KBI       0.145100
     22 C11          6.8810    -1.4350    -1.0160 c6         1 KBI      -0.090400
     23 C12          5.6140    -0.5900    -1.1110 c6         1 KBI      -0.089900
     24 C13         -0.8350     2.6780    -0.1490 c5         1 KBI       0.030000
     25 C14         -1.8090     3.3540     0.8240 c5         1 KBI       0.099400
     26 C15         -2.6800     3.8440    -1.1990 c5         1 KBI       0.114400
     27 C16         -1.4180     3.0420    -1.5330 c5         1 KBI      -0.137400
     28 C17         -4.1440    -1.2390     1.2080 ca         1 KBI       0.194400
     29 C18         -5.1100    -2.2240     1.2600 ca         1 KBI      -0.233500
     30 C19         -5.9370    -2.3590     0.1610 ca         1 KBI       0.192900
     31 C20         -5.8270    -1.5660    -0.9640 ca         1 KBI      -0.233500
     32 C21         -4.8260    -0.6150    -0.9680 ca         1 KBI       0.194400
     33 H4           1.1480    -2.7040     0.2820 h4         1 KBI       0.035100
     34 HN5         -3.2650     1.5520     0.0170 hn         1 KBI       0.490800
     35 HN6          4.0560     1.6460     0.0990 hn         1 KBI       0.442800
     36 H7           4.8900    -1.0660     0.8460 h1         1 KBI       0.083700
     37 H8           6.4650     1.5170     0.5010 hc         1 KBI       0.047950
     38 H8A          5.9040     0.8430     2.0230 hc         1 KBI       0.047950
     39 H9           8.2980     0.2980     1.6130 hc         1 KBI       0.053200
     40 H9A          7.3200    -1.1600     1.7090 hc         1 KBI       0.053200
     41 H10          8.2220     0.2230    -0.8490 h1         1 KBI       0.025700
     42 H11          7.2220    -1.7140    -2.0180 hc         1 KBI       0.053200
     43 H11A         6.6620    -2.3680    -0.4840 hc         1 KBI       0.053200
     44 H12          4.8250    -1.1500    -1.6170 hc         1 KBI       0.047950
     45 H12A         5.8050     0.3040    -1.7140 hc         1 KBI       0.047950
     46 H13          0.1670     3.0820    -0.0160 h1         1 KBI       0.104700
     47 H14         -1.4330     4.3530     1.0720 h1         1 KBI       0.070700
     48 H14A        -1.9650     2.8050     1.7530 h1         1 KBI       0.070700
     49 H15         -3.5180     3.6310    -1.8610 h1         1 KBI       0.058700
     50 H15A        -2.4820     4.9210    -1.2270 h1         1 KBI       0.058700
     51 H16         -0.7120     3.6210    -2.1250 hc         1 KBI       0.073200
     52 H16A        -1.6600     2.1420    -2.0980 hc         1 KBI       0.073200
     53 H18         -5.2220    -2.8500     2.1350 ha         1 KBI       0.174000
     54 H20         -6.4850    -1.6910    -1.8130 ha         1 KBI       0.174000
     55 HO1          9.4670    -1.7230    -0.9920 ho         1 KBI       0.403000
@<TRIPOS>BOND
     1     1     3 ar  
     2     1     7 ar  
     3     1    17 1   
     4     2    32 1   
     5     3    12 ar  
     6     4    21 1   
     7     4    55 1   
     8     5     7 ar  
     9     5     9 ar  
    10     5    11 1   
    11     6    30 1   
    12     8    25 1   
    13     8    26 1   
    14     9    12 ar  
    15     9    13 1   
    16    10    28 1   
    17    11    14 1   
    18    11    24 1   
    19    12    33 1   
    20    13    14 2   
    21    14    15 1   
    22    15    16 1   
    23    15    34 1   
    24    16    28 ar  
    25    16    32 ar  
    26    17    18 1   
    27    17    35 1   
    28    18    19 1   
    29    18    23 1   
    30    18    36 1   
    31    19    20 1   
    32    19    37 1   
    33    19    38 1   
    34    20    21 1   
    35    20    39 1   
    36    20    40 1   
    37    21    22 1   
    38    21    41 1   
    39    22    23 1   
    40    22    42 1   
    41    22    43 1   
    42    23    44 1   
    43    23    45 1   
    44    24    25 1   
    45    24    27 1   
    46    24    46 1   
    47    25    47 1   
    48    25    48 1   
    49    26    27 1   
    50    26    49 1   
    51    26    50 1   
    52    27    51 1   
    53    27    52 1   
    54    28    29 ar  
    55    29    30 ar  
    56    29    53 1   
    57    30    31 ar  
    58    31    32 ar  
    59    31    54 1   
@<TRIPOS>SUBSTRUCTURE
     1 KBI         1 TEMP              0 ****  ****    0 ROOT
