@<TRIPOS>MOLECULE
KBJ
   53    56     1     0     0
SMALL
abcg2


@<TRIPOS>ATOM
      1 C1          -2.6300     1.2550    -0.6160 c          1 KBJ       0.638100
      2 C2           5.6330    -1.1750     1.4100 cc         1 KBJ       0.743800
      3 C3          -6.7100    -1.1030     0.7740 ca         1 KBJ      -0.085300
      4 C4           3.8720    -0.6600     0.1750 cd         1 KBJ       0.165400
      5 C5           3.7430    -1.9110    -0.3980 cc         1 KBJ       0.085500
      6 C6           4.6710    -2.9300    -0.0330 c          1 KBJ       0.522500
      7 C8           2.1800    -0.7460    -1.2140 cd         1 KBJ       0.402400
      8 C10         -6.9110    -2.3620     0.2110 ca         1 KBJ      -0.103000
      9 C11         -8.1860    -2.7930    -0.1300 ca         1 KBJ      -0.108000
     10 C12         -9.2830    -1.9690     0.0880 ca         1 KBJ      -0.107000
     11 O6           4.7310    -4.0850    -0.4200 o          1 KBJ      -0.517000
     12 N1           5.5960    -2.4410     0.8980 ns         1 KBJ      -0.460400
     13 N2           6.6130    -0.8980     2.2760 nv         1 KBJ      -1.054200
     14 N3           4.7770    -0.2430     1.0680 nd         1 KBJ      -0.708100
     15 N7           2.6760    -1.9420    -1.2610 nc         1 KBJ      -0.594000
     16 N9           2.8670     0.0850    -0.3610 na         1 KBJ      -0.183500
     17 C15          2.5710     1.4580    -0.0580 c5         1 KBJ       0.313300
     18 O4           1.2720     1.5500     0.4610 os         1 KBJ      -0.437000
     19 C16          2.5900     2.3800    -1.2750 c5         1 KBJ       0.081300
     20 O2           3.9000     2.7640    -1.5610 oh         1 KBJ      -0.694000
     21 C17          1.6710     3.5090    -0.8020 c5         1 KBJ       0.111300
     22 O3           2.3430     4.3640     0.0850 oh         1 KBJ      -0.704000
     23 C18          0.6190     2.7270    -0.0200 c5         1 KBJ       0.161300
     24 C19         -0.5710     2.3660    -0.8820 c3         1 KBJ       0.170600
     25 O5          -1.4400     1.5740    -0.0870 os         1 KBJ      -0.447100
     26 O1          -2.9970     1.6120    -1.7170 o          1 KBJ      -0.546000
     27 N4          -3.3510     0.5070     0.2310 ns         1 KBJ      -0.502900
     28 C7          -4.6720     0.0250    -0.1120 c3         1 KBJ       0.122000
     29 C9          -5.3250    -0.6220     1.1050 c3         1 KBJ      -0.049100
     30 C13         -9.0940    -0.7120     0.6470 ca         1 KBJ      -0.108000
     31 C14         -7.8170    -0.2840     0.9850 ca         1 KBJ      -0.103000
     32 H2          -6.0610    -3.0140     0.0430 ha         1 KBJ       0.112500
     33 H3          -8.3250    -3.7760    -0.5640 ha         1 KBJ       0.113500
     34 H4         -10.2770    -2.3060    -0.1710 ha         1 KBJ       0.113000
     35 H5           6.5930    -0.0140     2.7560 hn         1 KBJ       0.505500
     36 H6           7.1910    -1.6200     2.6690 hn         1 KBJ       0.505500
     37 H8           3.3220     1.7790     0.6710 h2         1 KBJ       0.118700
     38 H9           2.1220     1.8730    -2.1290 h1         1 KBJ       0.057700
     39 H10          3.9400     3.0870    -2.4670 ho         1 KBJ       0.517000
     40 H11          1.2320     4.0600    -1.6440 h1         1 KBJ       0.059700
     41 H12          3.1940     4.5900    -0.3070 ho         1 KBJ       0.524000
     42 H13          0.2710     3.3100     0.8390 h1         1 KBJ       0.102700
     43 H14         -1.0620     3.2880    -1.2040 h1         1 KBJ       0.053200
     44 H15         -0.2660     1.8190    -1.7800 h1         1 KBJ       0.053200
     45 H16         -2.9330     0.2070     1.0970 hn         1 KBJ       0.331500
     46 H17         -5.2890     0.8570    -0.4580 h1         1 KBJ       0.056700
     47 H18         -4.6210    -0.7010    -0.9290 h1         1 KBJ       0.056700
     48 H19         -5.3650     0.1010     1.9220 hc         1 KBJ       0.053200
     49 H20         -4.7110    -1.4610     1.4450 hc         1 KBJ       0.053200
     50 H21         -9.9430    -0.0640     0.8250 ha         1 KBJ       0.113500
     51 H22         -7.6780     0.6980     1.4250 ha         1 KBJ       0.112500
     52 H23          6.2950    -3.1040     1.2090 hn         1 KBJ       0.321500
     53 H1           1.3150    -0.4080    -1.7660 h5         1 KBJ       0.059100
@<TRIPOS>BOND
     1     1    25 1   
     2     1    26 2   
     3     1    27 1   
     4     2    12 1   
     5     2    13 1   
     6     2    14 2   
     7     3     8 ar  
     8     3    29 1   
     9     3    31 ar  
    10     4     5 2   
    11     4    14 1   
    12     4    16 1   
    13     5     6 1   
    14     5    15 1   
    15     6    11 2   
    16     6    12 1   
    17     7    15 2   
    18     7    16 1   
    19     7    53 1   
    20     8     9 ar  
    21     8    32 1   
    22     9    10 ar  
    23     9    33 1   
    24    10    30 ar  
    25    10    34 1   
    26    12    52 1   
    27    13    35 1   
    28    13    36 1   
    29    16    17 1   
    30    17    18 1   
    31    17    19 1   
    32    17    37 1   
    33    18    23 1   
    34    19    20 1   
    35    19    21 1   
    36    19    38 1   
    37    20    39 1   
    38    21    22 1   
    39    21    23 1   
    40    21    40 1   
    41    22    41 1   
    42    23    24 1   
    43    23    42 1   
    44    24    25 1   
    45    24    43 1   
    46    24    44 1   
    47    27    28 1   
    48    27    45 1   
    49    28    29 1   
    50    28    46 1   
    51    28    47 1   
    52    29    48 1   
    53    29    49 1   
    54    30    31 ar  
    55    30    50 1   
    56    31    51 1   
@<TRIPOS>SUBSTRUCTURE
     1 KBJ         1 TEMP              0 ****  ****    0 ROOT
