@<TRIPOS>MOLECULE
KBJ
   53    56     1     0     0
SMALL
No Charge or Current Charge


@<TRIPOS>ATOM
      1 C1          -2.7500     1.5090    -0.6480 c          1 KBJ       0.638100
      2 C2           5.5840    -1.2640     0.0820 cc         1 KBJ       0.743800
      3 C3          -6.4030    -1.2470     0.0840 ca         1 KBJ      -0.085300
      4 C4           3.5830    -0.5200     0.8030 cd         1 KBJ       0.165400
      5 C5           3.2740    -1.7430     1.3320 cc         1 KBJ       0.085500
      6 C6           4.2300    -2.8690     1.2230 c          1 KBJ       0.522500
      7 C8           1.5830    -0.4750     1.7450 cd         1 KBJ       0.402400
      8 C10         -6.8190    -1.6580    -1.1980 ca         1 KBJ      -0.103000
      9 C11         -8.0810    -2.2500    -1.3770 ca         1 KBJ      -0.108000
     10 C12         -8.9360    -2.4320    -0.2760 ca         1 KBJ      -0.107000
     11 O6           4.0640    -4.0040     1.6490 o          1 KBJ      -0.517000
     12 N1           5.3660    -2.5040     0.5700 ns         1 KBJ      -0.460400
     13 N2           6.7410    -1.0740    -0.5170 nv         1 KBJ      -1.054200
     14 N3           4.7760    -0.2280     0.1360 nd         1 KBJ      -0.708100
     15 N7           2.0300    -1.7200     1.9190 nc         1 KBJ      -0.594000
     16 N9           2.5110     0.3030     1.0570 na         1 KBJ      -0.183500
     17 C15          2.3870     1.7080     0.6860 c5         1 KBJ       0.313300
     18 O4           1.0600     2.2100     0.9830 os         1 KBJ      -0.437000
     19 C16          2.6230     2.0130    -0.8290 c5         1 KBJ       0.081300
     20 O2           4.0140     2.1050    -1.1880 oh         1 KBJ      -0.694000
     21 C17          1.8770     3.3670    -0.9550 c5         1 KBJ       0.111300
     22 O3           2.6540     4.4340    -0.3920 oh         1 KBJ      -0.704000
     23 C18          0.5910     3.0320    -0.1250 c5         1 KBJ       0.161300
     24 C19         -0.4860     2.2490    -0.9260 c3         1 KBJ       0.170600
     25 O5          -1.6860     2.1820    -0.1310 os         1 KBJ      -0.447100
     26 O1          -2.7870     0.9580    -1.7360 o          1 KBJ      -0.546000
     27 N4          -3.7800     1.5580     0.2460 ns         1 KBJ      -0.502900
     28 C7          -5.0850     0.9240     0.0530 c3         1 KBJ       0.122000
     29 C9          -5.0370    -0.6010     0.2750 c3         1 KBJ      -0.049100
     30 C13         -8.5270    -2.0210     1.0040 ca         1 KBJ      -0.108000
     31 C14         -7.2640    -1.4300     1.1830 ca         1 KBJ      -0.103000
     32 H2          -6.1640    -1.5190    -2.0560 ha         1 KBJ       0.112500
     33 H3          -8.3970    -2.5670    -2.3690 ha         1 KBJ       0.113500
     34 H4          -9.9130    -2.8900    -0.4150 ha         1 KBJ       0.113000
     35 H5           6.9550    -0.0980    -0.6720 hn         1 KBJ       0.505500
     36 H6           7.5200    -1.6340    -0.1950 hn         1 KBJ       0.505500
     37 H8           3.1200     2.2530     1.2940 h2         1 KBJ       0.118700
     38 H9           2.1340     1.2460    -1.4450 h1         1 KBJ       0.057700
     39 H10          4.4360     1.2750    -0.8220 ho         1 KBJ       0.517000
     40 H11          1.6300     3.5900    -2.0040 h1         1 KBJ       0.059700
     41 H12          3.5860     4.2220    -0.6470 ho         1 KBJ       0.524000
     42 H13          0.1280     3.9470     0.2680 h1         1 KBJ       0.102700
     43 H14         -0.6830     2.7740    -1.8700 h1         1 KBJ       0.053200
     44 H15         -0.1180     1.2420    -1.1610 h1         1 KBJ       0.053200
     45 H16         -3.5960     2.0590     1.1060 hn         1 KBJ       0.331500
     46 H17         -5.8000     1.3720     0.7560 h1         1 KBJ       0.056700
     47 H18         -5.4380     1.1360    -0.9660 h1         1 KBJ       0.056700
     48 H19         -4.6610    -0.8030     1.2850 hc         1 KBJ       0.053200
     49 H20         -4.3130    -1.0460    -0.4170 hc         1 KBJ       0.053200
     50 H21         -9.1880    -2.1610     1.8570 ha         1 KBJ       0.113500
     51 H22         -6.9570    -1.1120     2.1780 ha         1 KBJ       0.112500
     52 H23          6.0620    -3.2170     0.4320 hn         1 KBJ       0.321500
     53 H1           0.6300    -0.0810     2.0790 h5         1 KBJ       0.059100
@<TRIPOS>BOND
     1     1    25 1   
     2     1    26 2   
     3     1    27 1   
     4     2    12 1   
     5     2    13 1   
     6     2    14 2   
     7     3     8 ar  
     8     3    29 1   
     9     3    31 ar  
    10     4     5 2   
    11     4    14 1   
    12     4    16 1   
    13     5     6 1   
    14     5    15 1   
    15     6    11 2   
    16     6    12 1   
    17     7    15 2   
    18     7    16 1   
    19     7    53 1   
    20     8     9 ar  
    21     8    32 1   
    22     9    10 ar  
    23     9    33 1   
    24    10    30 ar  
    25    10    34 1   
    26    12    52 1   
    27    13    35 1   
    28    13    36 1   
    29    16    17 1   
    30    17    18 1   
    31    17    19 1   
    32    17    37 1   
    33    18    23 1   
    34    19    20 1   
    35    19    21 1   
    36    19    38 1   
    37    20    39 1   
    38    21    22 1   
    39    21    23 1   
    40    21    40 1   
    41    22    41 1   
    42    23    24 1   
    43    23    42 1   
    44    24    25 1   
    45    24    43 1   
    46    24    44 1   
    47    27    28 1   
    48    27    45 1   
    49    28    29 1   
    50    28    46 1   
    51    28    47 1   
    52    29    48 1   
    53    29    49 1   
    54    30    31 ar  
    55    30    50 1   
    56    31    51 1   
@<TRIPOS>SUBSTRUCTURE
     1 KBJ         1 TEMP              0 ****  ****    0 ROOT
