@<TRIPOS>MOLECULE
KBK
   34    34     1     0     0
SMALL
No Charge or Current Charge


@<TRIPOS>ATOM
      1 O9           0.9980    -3.1440     0.2360 o          1 KBK      -0.911167
      2 P8          -0.2180    -2.3050     0.4550 p5         1 KBK       1.270500
      3 O11         -1.4010    -3.0020    -0.1340 o          1 KBK      -0.911167
      4 O10         -0.4340    -2.1110     1.9210 o          1 KBK      -0.911167
      5 C7           0.0080    -0.6220    -0.3990 c3         1 KBK      -0.080400
      6 O12         -0.9370     0.4230    -0.0160 os         1 KBK      -0.438000
      7 C13         -2.3280     0.1800    -0.3680 c3         1 KBK       0.104600
      8 C14         -3.2640     1.3810    -0.0450 c          1 KBK       0.615100
      9 N16         -4.6410     1.2400    -0.3810 n          1 KBK      -0.305300
     10 C17         -5.6320     2.3140    -0.1660 c3         1 KBK       0.094300
     11 O18         -5.1390     0.0380    -1.0100 oh         1 KBK      -0.450100
     12 O15         -2.8570     2.4190     0.4750 o          1 KBK      -0.587100
     13 C3           1.4160    -0.0600    -0.2170 ca         1 KBK       0.008700
     14 C4           1.8320     0.4460     1.0310 ca         1 KBK      -0.065500
     15 C5           3.1270     0.9710     1.1910 ca         1 KBK      -0.179500
     16 C6           4.0210     1.0000     0.1090 ca         1 KBK       0.054100
     17 O19          5.2780     1.5270     0.3240 os         1 KBK      -0.368100
     18 C20          6.2660     1.6020    -0.7190 c3         1 KBK       0.165900
     19 C1           3.6110     0.4970    -1.1440 ca         1 KBK      -0.179500
     20 C2           2.3150    -0.0280    -1.3030 ca         1 KBK      -0.065500
     21 H3          -0.1250    -0.8460    -1.4650 h1         1 KBK       0.014700
     22 H4          -2.4250    -0.0260    -1.4410 h1         1 KBK       0.062700
     23 H5          -2.7240    -0.6850     0.1770 h1         1 KBK       0.062700
     24 H6          -5.6910     2.5530     0.9030 h1         1 KBK       0.028367
     25 H7          -5.3300     3.2110    -0.7210 h1         1 KBK       0.028367
     26 H8          -6.6220     1.9950    -0.5170 h1         1 KBK       0.028367
     27 H9          -5.4700    -0.5290    -0.2750 ho         1 KBK       0.447000
     28 H10          1.1460     0.4330     1.8750 ha         1 KBK       0.129500
     29 H11          3.4350     1.3580     2.1590 ha         1 KBK       0.082000
     30 H12          6.5080     0.6010    -1.1000 h1         1 KBK       0.014700
     31 H13          5.9060     2.2200    -1.5520 h1         1 KBK       0.014700
     32 H14          7.1890     2.0530    -0.3350 h1         1 KBK       0.014700
     33 H15          4.2760     0.5040    -2.0030 ha         1 KBK       0.082000
     34 H16          2.0070    -0.4120    -2.2730 ha         1 KBK       0.129500
@<TRIPOS>BOND
     1     1     2 1   
     2     2     3 1   
     3     2     4 1   
     4     2     5 1   
     5     5     6 1   
     6     5    13 1   
     7     5    21 1   
     8     6     7 1   
     9     7     8 1   
    10     7    22 1   
    11     7    23 1   
    12     8     9 1   
    13     8    12 2   
    14     9    10 1   
    15     9    11 1   
    16    10    24 1   
    17    10    25 1   
    18    10    26 1   
    19    11    27 1   
    20    13    14 ar  
    21    13    20 ar  
    22    14    15 ar  
    23    14    28 1   
    24    15    16 ar  
    25    15    29 1   
    26    16    17 1   
    27    16    19 ar  
    28    17    18 1   
    29    18    30 1   
    30    18    31 1   
    31    18    32 1   
    32    19    20 ar  
    33    19    33 1   
    34    20    34 1   
@<TRIPOS>SUBSTRUCTURE
     1 KBK         1 TEMP              0 ****  ****    0 ROOT
