@<TRIPOS>MOLECULE
KBK
   34    34     1     0     0
SMALL
abcg2


@<TRIPOS>ATOM
      1 O9           0.8340    -3.0620    -0.5350 o          1 KBK      -0.911167
      2 P8          -0.1260    -2.2360     0.3270 p5         1 KBK       1.270500
      3 O11         -1.5930    -2.6780     0.2060 o          1 KBK      -0.911167
      4 O10          0.3360    -2.0200     1.7680 o          1 KBK      -0.911167
      5 C7          -0.0610    -0.5260    -0.4730 c3         1 KBK      -0.080400
      6 O12         -1.0270     0.3670     0.0730 os         1 KBK      -0.438000
      7 C13         -2.2810     0.2470    -0.5170 c3         1 KBK       0.104600
      8 C14         -3.2260     1.1880     0.2030 c          1 KBK       0.615100
      9 N16         -4.5180     1.1370    -0.2010 n          1 KBK      -0.305300
     10 C17         -5.5380     2.0730     0.2010 c3         1 KBK       0.094300
     11 O18         -4.7960     0.4400    -1.3500 oh         1 KBK      -0.450100
     12 O15         -2.8690     1.9270     1.1040 o          1 KBK      -0.587100
     13 C3           1.2940     0.0820    -0.3010 ca         1 KBK       0.008700
     14 C4           1.5790     0.9880     0.7210 ca         1 KBK      -0.065500
     15 C5           2.8520     1.5080     0.8890 ca         1 KBK      -0.179500
     16 C6           3.8920     1.1240     0.0440 ca         1 KBK       0.054100
     17 O19          5.1020     1.6840     0.2790 os         1 KBK      -0.368100
     18 C20          6.1810     1.3130    -0.5500 c3         1 KBK       0.165900
     19 C1           3.6290     0.2120    -0.9740 ca         1 KBK      -0.179500
     20 C2           2.3440    -0.2970    -1.1290 ca         1 KBK      -0.065500
     21 H3          -0.2460    -0.6490    -1.5530 h1         1 KBK       0.014700
     22 H4          -2.2530     0.5180    -1.5850 h1         1 KBK       0.062700
     23 H5          -2.6480    -0.7840    -0.4620 h1         1 KBK       0.062700
     24 H6          -5.2570     2.5220     1.1480 h1         1 KBK       0.028367
     25 H7          -5.6700     2.8650    -0.5390 h1         1 KBK       0.028367
     26 H8          -6.4840     1.5510     0.3360 h1         1 KBK       0.028367
     27 H9          -5.2090    -0.3880    -1.0690 ho         1 KBK       0.447000
     28 H10          0.7940     1.3110     1.3910 ha         1 KBK       0.129500
     29 H11          3.0470     2.2170     1.6860 ha         1 KBK       0.082000
     30 H12          6.4050     0.2440    -0.4820 h1         1 KBK       0.014700
     31 H13          6.0010     1.5650    -1.6000 h1         1 KBK       0.014700
     32 H14          7.0480     1.8720    -0.2040 h1         1 KBK       0.014700
     33 H15          4.4030    -0.1130    -1.6560 ha         1 KBK       0.082000
     34 H16          2.1600    -1.0070    -1.9250 ha         1 KBK       0.129500
@<TRIPOS>BOND
     1     1     2 1   
     2     2     3 1   
     3     2     4 1   
     4     2     5 1   
     5     5     6 1   
     6     5    13 1   
     7     5    21 1   
     8     6     7 1   
     9     7     8 1   
    10     7    22 1   
    11     7    23 1   
    12     8     9 1   
    13     8    12 2   
    14     9    10 1   
    15     9    11 1   
    16    10    24 1   
    17    10    25 1   
    18    10    26 1   
    19    11    27 1   
    20    13    14 ar  
    21    13    20 ar  
    22    14    15 ar  
    23    14    28 1   
    24    15    16 ar  
    25    15    29 1   
    26    16    17 1   
    27    16    19 ar  
    28    17    18 1   
    29    18    30 1   
    30    18    31 1   
    31    18    32 1   
    32    19    20 ar  
    33    19    33 1   
    34    20    34 1   
@<TRIPOS>SUBSTRUCTURE
     1 KBK         1 TEMP              0 ****  ****    0 ROOT
