@<TRIPOS>MOLECULE
KBL
   45    48     1     0     0
SMALL
No Charge or Current Charge


@<TRIPOS>ATOM
      1 C4          14.2330    39.2910   -12.5820 ca         1 KBL       0.284000
      2 C5          13.8620    40.5510   -13.0830 ca         1 KBL      -0.102000
      3 C6          14.2020    41.7260   -12.3750 ca         1 KBL       0.098100
      4 C8          13.1630    43.2780   -14.0310 c3         1 KBL       0.515000
      5 C13         12.4840    36.3710   -13.5890 cc         1 KBL      -0.381200
      6 C20         15.4340    35.3340   -16.9250 cc         1 KBL      -0.171000
      7 C21         16.9290    38.3900   -16.0730 ca         1 KBL       0.026800
      8 C22         17.8630    38.5260   -15.0270 ca         1 KBL      -0.099000
      9 C24         17.5180    40.9380   -15.0210 ca         1 KBL      -0.117000
     10 C26         16.3060    39.5390   -16.6030 ca         1 KBL      -0.099000
     11 C1          14.9630    39.2000   -11.3830 ca         1 KBL      -0.078000
     12 C2          15.3000    40.3640   -10.6730 ca         1 KBL      -0.095000
     13 C3          14.9170    41.6210   -11.1700 ca         1 KBL      -0.091000
     14 O7          13.8720    42.9990   -12.8070 os         1 KBL      -0.403100
     15 N9          13.9250    38.1360   -13.3080 na         1 KBL      -0.334300
     16 N10         14.8240    37.8540   -14.3180 nc         1 KBL      -0.371400
     17 C11         14.5360    36.7510   -15.0250 cd         1 KBL       0.340900
     18 C12         13.3240    35.9060   -14.6940 c          1 KBL       0.478000
     19 C14         12.7460    37.5040   -12.8640 cd         1 KBL       0.148800
     20 O15         13.0020    34.8810   -15.2850 o          1 KBL      -0.532100
     21 C16         15.4730    36.4350   -16.1100 cd         1 KBL      -0.166900
     22 N17         16.6160    37.1250   -16.5780 na         1 KBL       0.229000
     23 N18         17.2630    36.5190   -17.6410 nd         1 KBL      -0.502800
     24 C19         16.5260    35.4380   -17.8070 cc         1 KBL       0.233900
     25 C23         18.1530    39.7980   -14.4990 ca         1 KBL      -0.109000
     26 C25         16.5980    40.8090   -16.0760 ca         1 KBL      -0.109000
     27 C27         11.8810    38.0140   -11.7310 c3         1 KBL      -0.068900
     28 F28         11.9300    42.7200   -14.0440 f          1 KBL      -0.105000
     29 F29         12.9930    44.6090   -14.1900 f          1 KBL      -0.105000
     30 F30         13.8330    42.8350   -15.1200 f          1 KBL      -0.105000
     31 H1          13.3200    40.5850   -14.0210 ha         1 KBL       0.147000
     32 H2          11.6170    35.7560   -13.3780 ha         1 KBL       0.215000
     33 H3          14.7320    34.5090   -16.9340 ha         1 KBL       0.159000
     34 H4          18.3500    37.6450   -14.6150 ha         1 KBL       0.133000
     35 H5          17.7400    41.9200   -14.6100 ha         1 KBL       0.115000
     36 H6          15.5870    39.4420   -17.4140 ha         1 KBL       0.133000
     37 H7          15.2670    38.2250   -11.0110 ha         1 KBL       0.145000
     38 H8          15.8610    40.2920    -9.7430 ha         1 KBL       0.131000
     39 H9          15.1810    42.5230   -10.6220 ha         1 KBL       0.141000
     40 H10         16.8000    34.7400   -18.5870 h4         1 KBL       0.041100
     41 H11         18.8670    39.8980   -13.6840 ha         1 KBL       0.118500
     42 H12         16.1100    41.6920   -16.4820 ha         1 KBL       0.118500
     43 H13         10.9820    37.3980   -11.6130 hc         1 KBL       0.064033
     44 H14         12.4190    37.9910   -10.7770 hc         1 KBL       0.064033
     45 H15         11.5470    39.0420   -11.9140 hc         1 KBL       0.064033
@<TRIPOS>BOND
     1     1     2 ar  
     2     1    11 ar  
     3     1    15 1   
     4     2     3 ar  
     5     2    31 1   
     6     3    13 ar  
     7     3    14 1   
     8     4    14 1   
     9     4    28 1   
    10     4    29 1   
    11     4    30 1   
    12     5    18 1   
    13     5    19 2   
    14     5    32 1   
    15     6    21 2   
    16     6    24 1   
    17     6    33 1   
    18     7     8 ar  
    19     7    10 ar  
    20     7    22 1   
    21     8    25 ar  
    22     8    34 1   
    23     9    25 ar  
    24     9    26 ar  
    25     9    35 1   
    26    10    26 ar  
    27    10    36 1   
    28    11    12 ar  
    29    11    37 1   
    30    12    13 ar  
    31    12    38 1   
    32    13    39 1   
    33    15    16 1   
    34    15    19 1   
    35    16    17 2   
    36    17    18 1   
    37    17    21 1   
    38    18    20 2   
    39    19    27 1   
    40    21    22 1   
    41    22    23 1   
    42    23    24 2   
    43    24    40 1   
    44    25    41 1   
    45    26    42 1   
    46    27    43 1   
    47    27    44 1   
    48    27    45 1   
@<TRIPOS>SUBSTRUCTURE
     1 KBL         1 TEMP              0 ****  ****    0 ROOT
