@<TRIPOS>MOLECULE
KBL
   45    48     1     0     0
SMALL
bcc


@<TRIPOS>ATOM
      1 C4          13.9610    39.8070   -13.1510 ca         1 KBL       0.145600
      2 C5          12.8260    40.5890   -13.0120 ca         1 KBL      -0.120000
      3 C6          12.9830    41.9130   -12.6390 ca         1 KBL       0.098100
      4 C8          11.3460    43.3500   -13.4810 c3         1 KBL       0.855700
      5 C13         13.1350    36.2230   -13.2570 cc         1 KBL      -0.331200
      6 C20         14.8840    36.0630   -17.5190 cc         1 KBL      -0.254300
      7 C21         17.2760    37.9600   -15.6570 ca         1 KBL       0.026800
      8 C22         17.5480    37.4000   -14.4160 ca         1 KBL      -0.117000
      9 C24         18.9130    39.3070   -13.8750 ca         1 KBL      -0.135000
     10 C26         17.8250    39.1820   -16.0190 ca         1 KBL      -0.117000
     11 C1          15.2280    40.3360   -12.9530 ca         1 KBL      -0.096000
     12 C2          15.3560    41.6680   -12.5910 ca         1 KBL      -0.113000
     13 C3          14.2330    42.4660   -12.4250 ca         1 KBL      -0.109000
     14 O7          11.8520    42.6890   -12.4300 os         1 KBL      -0.379900
     15 N9          13.8380    38.4390   -13.5420 na         1 KBL      -0.195900
     16 N10         14.4610    38.1550   -14.6710 nc         1 KBL      -0.371400
     17 C11         14.4500    36.9500   -15.1370 cd         1 KBL       0.340900
     18 C12         13.7280    35.8400   -14.5020 c          1 KBL       0.478000
     19 C14         13.1990    37.4990   -12.7880 cd         1 KBL       0.148800
     20 O15         13.6800    34.7160   -14.9920 o          1 KBL      -0.532100
     21 C16         15.2200    36.7240   -16.3590 cd         1 KBL      -0.116200
     22 N17         16.4460    37.2720   -16.5760 na         1 KBL       0.178300
     23 N18         16.9040    37.0100   -17.7980 nd         1 KBL      -0.502800
     24 C19         15.9670    36.2890   -18.3800 cc         1 KBL       0.299200
     25 C23         18.3620    38.0810   -13.5240 ca         1 KBL      -0.127000
     26 C25         18.6480    39.8510   -15.1250 ca         1 KBL      -0.127000
     27 C27         12.6270    37.8880   -11.4650 c3         1 KBL      -0.068900
     28 F28         10.9360    42.5310   -14.4500 f          1 KBL      -0.226300
     29 F29         10.3050    44.0460   -13.0580 f          1 KBL      -0.226300
     30 F30         12.2250    44.1930   -14.0250 f          1 KBL      -0.226300
     31 H1          11.8400    40.1780   -13.1880 ha         1 KBL       0.165000
     32 H2          12.6410    35.4700   -12.6570 ha         1 KBL       0.165000
     33 H3          13.9740    35.5260   -17.7230 ha         1 KBL       0.177000
     34 H4          17.1340    36.4350   -14.1510 ha         1 KBL       0.151000
     35 H5          19.5500    39.8350   -13.1770 ha         1 KBL       0.133000
     36 H6          17.6070    39.6080   -16.9900 ha         1 KBL       0.151000
     37 H7          16.1040    39.7130   -13.0740 ha         1 KBL       0.163000
     38 H8          16.3390    42.0860   -12.4280 ha         1 KBL       0.149000
     39 H9          14.3320    43.5000   -12.1220 ha         1 KBL       0.159000
     40 H10         16.0970    35.9450   -19.3950 h4         1 KBL       0.041100
     41 H11         18.5720    37.6470   -12.5560 ha         1 KBL       0.136500
     42 H12         19.0770    40.8040   -15.4050 ha         1 KBL       0.136500
     43 H13         12.3780    36.9890   -10.9060 hc         1 KBL       0.064033
     44 H14         13.3310    38.4750   -10.8760 hc         1 KBL       0.064033
     45 H15         11.7140    38.4730   -11.5720 hc         1 KBL       0.064033
@<TRIPOS>BOND
     1     1     2 ar  
     2     1    11 ar  
     3     1    15 1   
     4     2     3 ar  
     5     2    31 1   
     6     3    13 ar  
     7     3    14 1   
     8     4    14 1   
     9     4    28 1   
    10     4    29 1   
    11     4    30 1   
    12     5    18 1   
    13     5    19 2   
    14     5    32 1   
    15     6    21 2   
    16     6    24 1   
    17     6    33 1   
    18     7     8 ar  
    19     7    10 ar  
    20     7    22 1   
    21     8    25 ar  
    22     8    34 1   
    23     9    25 ar  
    24     9    26 ar  
    25     9    35 1   
    26    10    26 ar  
    27    10    36 1   
    28    11    12 ar  
    29    11    37 1   
    30    12    13 ar  
    31    12    38 1   
    32    13    39 1   
    33    15    16 1   
    34    15    19 1   
    35    16    17 2   
    36    17    18 1   
    37    17    21 1   
    38    18    20 2   
    39    19    27 1   
    40    21    22 1   
    41    22    23 1   
    42    23    24 2   
    43    24    40 1   
    44    25    41 1   
    45    26    42 1   
    46    27    43 1   
    47    27    44 1   
    48    27    45 1   
@<TRIPOS>SUBSTRUCTURE
     1 KBL         1 TEMP              0 ****  ****    0 ROOT
