@<TRIPOS>MOLECULE
KBM
   31    33     1     0     0
SMALL
No Charge or Current Charge


@<TRIPOS>ATOM
      1 Cl1         -5.9570    -1.5840    -0.4560 cl         1 KBM      -0.195000
      2 C2          -4.5060    -0.6060    -0.2740 ca         1 KBM       0.142000
      3 C3          -4.5820     0.6550     0.3330 ca         1 KBM      -0.118000
      4 C4          -3.4240     1.4390     0.4770 ca         1 KBM      -0.050000
      5 C5          -3.2750    -1.0840    -0.7450 ca         1 KBM      -0.118000
      6 C6          -2.1130    -0.3050    -0.6030 ca         1 KBM      -0.050000
      7 C7          -2.1710     0.9630     0.0260 ca         1 KBM      -0.161600
      8 C8          -0.9470     1.8450     0.1900 c          1 KBM       0.621900
      9 O9          -1.0590     3.0660     0.1550 o          1 KBM      -0.506100
     10 C10          0.3930     1.1910     0.2440 cc         1 KBM      -0.071100
     11 O11          0.6050    -0.1480     0.5930 os         1 KBM      -0.157200
     12 C12          1.9610    -0.3400     0.4160 ca         1 KBM       0.040100
     13 C13          2.6630    -1.5280     0.6530 ca         1 KBM      -0.073000
     14 C14          1.5830     1.7650    -0.1700 cd         1 KBM      -0.153200
     15 C15          2.6040     0.7770    -0.0450 ca         1 KBM      -0.097800
     16 C16          3.9780     0.8060    -0.3060 ca         1 KBM      -0.093000
     17 C17          4.7160    -0.3740    -0.0750 ca         1 KBM       0.119100
     18 C18          4.0560    -1.5420     0.4050 ca         1 KBM      -0.159000
     19 O19          6.0720    -0.3440    -0.3320 os         1 KBM      -0.343100
     20 C20          6.9180    -1.4920    -0.1320 c3         1 KBM       0.149900
     21 H3          -5.5390     1.0280     0.6910 ha         1 KBM       0.133500
     22 H4          -3.5010     2.4160     0.9500 ha         1 KBM       0.131000
     23 H5          -3.2210    -2.0550    -1.2300 ha         1 KBM       0.133500
     24 H6          -1.1800    -0.6880    -1.0110 ha         1 KBM       0.131000
     25 H13          2.1480    -2.4140     1.0170 ha         1 KBM       0.133000
     26 H14          1.7050     2.7830    -0.5370 ha         1 KBM       0.229000
     27 H16          4.4640     1.7060    -0.6740 ha         1 KBM       0.138000
     28 H18          4.6030    -2.4620     0.5890 ha         1 KBM       0.122000
     29 H20          7.9550    -1.2500    -0.3960 h1         1 KBM       0.041033
     30 H20A         6.9000    -1.8110     0.9180 h1         1 KBM       0.041033
     31 H20B         6.5930    -2.3300    -0.7620 h1         1 KBM       0.041033
@<TRIPOS>BOND
     1     1     2 1   
     2     2     3 ar  
     3     2     5 ar  
     4     3     4 ar  
     5     3    21 1   
     6     4     7 ar  
     7     4    22 1   
     8     5     6 ar  
     9     5    23 1   
    10     6     7 ar  
    11     6    24 1   
    12     7     8 1   
    13     8     9 2   
    14     8    10 1   
    15    10    11 1   
    16    10    14 2   
    17    11    12 1   
    18    12    13 ar  
    19    12    15 ar  
    20    13    18 ar  
    21    13    25 1   
    22    14    15 1   
    23    14    26 1   
    24    15    16 ar  
    25    16    17 ar  
    26    16    27 1   
    27    17    18 ar  
    28    17    19 1   
    29    18    28 1   
    30    19    20 1   
    31    20    29 1   
    32    20    30 1   
    33    20    31 1   
@<TRIPOS>SUBSTRUCTURE
     1 KBM         1 TEMP              0 ****  ****    0 ROOT
