@<TRIPOS>MOLECULE
KBM
   31    33     1     0     0
SMALL
bcc


@<TRIPOS>ATOM
      1 CL1         -5.8530    -1.5960     0.0070 cl         1 KBM      -0.103400
      2 C2          -4.4170    -0.6350    -0.0360 ca         1 KBM       0.050400
      3 C3          -4.3870     0.5730     0.6450 ca         1 KBM      -0.136000
      4 C4          -3.2360     1.3390     0.6010 ca         1 KBM      -0.068000
      5 C5          -3.3200    -1.0850    -0.7530 ca         1 KBM      -0.136000
      6 C6          -2.1630    -0.3220    -0.7690 ca         1 KBM      -0.068000
      7 C7          -2.1090     0.8950    -0.0910 ca         1 KBM      -0.161600
      8 C8          -0.9230     1.7880    -0.1310 c          1 KBM       0.621900
      9 O9          -1.0520     2.9970    -0.1450 o          1 KBM      -0.506100
     10 C10          0.4300     1.2210    -0.1220 cc         1 KBM      -0.071100
     11 O11          0.6050    -0.1000     0.1510 os         1 KBM      -0.157200
     12 C12          1.9360    -0.3240     0.1280 ca         1 KBM       0.040100
     13 C13          2.5800    -1.5250     0.3550 ca         1 KBM      -0.091000
     14 C14          1.6150     1.8550    -0.3160 cd         1 KBM      -0.103200
     15 C15          2.6250     0.8570    -0.1620 ca         1 KBM      -0.097800
     16 C16          4.0170     0.8550    -0.2310 ca         1 KBM      -0.111000
     17 C17          4.6810    -0.3420    -0.0040 ca         1 KBM       0.119100
     18 C18          3.9630    -1.5200     0.2850 ca         1 KBM      -0.177000
     19 O19          6.0280    -0.2970    -0.0750 os         1 KBM      -0.319900
     20 C20          6.7670    -1.4770     0.1650 c3         1 KBM       0.126700
     21 H3          -5.2490     0.9140     1.2020 ha         1 KBM       0.151500
     22 H4          -3.2120     2.2840     1.1270 ha         1 KBM       0.149000
     23 H5          -3.3610    -2.0200    -1.2960 ha         1 KBM       0.151500
     24 H6          -1.3210    -0.6810    -1.3440 ha         1 KBM       0.149000
     25 H13          2.0400    -2.4350     0.5800 ha         1 KBM       0.151000
     26 H14          1.7510     2.9000    -0.5430 ha         1 KBM       0.179000
     27 H16          4.5710     1.7570    -0.4530 ha         1 KBM       0.156000
     28 H18          4.4830    -2.4510     0.4600 ha         1 KBM       0.140000
     29 H20          7.8160    -1.2060     0.0760 h1         1 KBM       0.041033
     30 H20A         6.5930    -1.8750     1.1680 h1         1 KBM       0.041033
     31 H20B         6.5450    -2.2580    -0.5680 h1         1 KBM       0.041033
@<TRIPOS>BOND
     1     1     2 1   
     2     2     3 ar  
     3     2     5 ar  
     4     3     4 ar  
     5     3    21 1   
     6     4     7 ar  
     7     4    22 1   
     8     5     6 ar  
     9     5    23 1   
    10     6     7 ar  
    11     6    24 1   
    12     7     8 1   
    13     8     9 2   
    14     8    10 1   
    15    10    11 1   
    16    10    14 2   
    17    11    12 1   
    18    12    13 ar  
    19    12    15 ar  
    20    13    18 ar  
    21    13    25 1   
    22    14    15 1   
    23    14    26 1   
    24    15    16 ar  
    25    16    17 ar  
    26    16    27 1   
    27    17    18 ar  
    28    17    19 1   
    29    18    28 1   
    30    19    20 1   
    31    20    29 1   
    32    20    30 1   
    33    20    31 1   
@<TRIPOS>SUBSTRUCTURE
     1 KBM         1 TEMP              0 ****  ****    0 ROOT
