@<TRIPOS>MOLECULE
KBO
   68    71     1     0     0
SMALL
No Charge or Current Charge


@<TRIPOS>ATOM
      1 C1          39.9490   -95.5580   -88.8680 c          1 KBO       0.618100
      2 C2          38.8610   -94.4640   -88.7370 c3         1 KBO      -0.256000
      3 C3          37.7490   -94.5590   -89.8490 c3         1 KBO      -0.062400
      4 C4          38.2350   -94.4610   -91.3170 c3         1 KBO      -0.094600
      5 C5          38.2290   -94.6290   -87.3060 c3         1 KBO      -0.062400
      6 C6          37.0350   -93.7070   -86.9570 c3         1 KBO      -0.094600
      7 C7          40.2160   -97.9650   -89.7450 ca         1 KBO      -0.028000
      8 C8          41.5350   -98.2470   -89.3230 ca         1 KBO      -0.127000
      9 C11         45.9230  -100.1900   -89.8630 c6         1 KBO       0.163800
     10 C12         46.9580  -100.1910   -91.0330 c6         1 KBO       0.163800
     11 C15         48.0450   -98.8380   -92.8130 c3         1 KBO       0.211100
     12 C16         49.4800   -99.1030   -92.3450 ca         1 KBO      -0.057300
     13 C17         50.0460   -98.2090   -91.4130 ca         1 KBO      -0.082000
     14 C18         51.3530   -98.3940   -90.9410 ca         1 KBO      -0.107000
     15 C19         52.1120   -99.4780   -91.3990 ca         1 KBO      -0.094000
     16 C21         52.3380  -101.4610   -92.7810 ca         1 KBO      -0.059000
     17 C23         50.4640  -102.1180   -94.1530 ca         1 KBO       0.353900
     18 C24         50.2380  -100.2060   -92.8220 ca         1 KBO       0.275000
     19 C27         39.5170   -98.9330   -90.4900 ca         1 KBO      -0.166000
     20 O1          41.1040   -95.3480   -88.5160 o          1 KBO      -0.584100
     21 C           39.6250   -93.1290   -88.8850 c          1 KBO       0.603900
     22 O           39.6920   -92.2620   -88.0200 o          1 KBO      -0.500100
     23 N           39.5360   -96.7520   -89.4500 ns         1 KBO      -0.138000
     24 C26         40.1220  -100.1560   -90.8220 ca         1 KBO      -0.089000
     25 C25         41.4350  -100.4240   -90.4050 ca         1 KBO      -0.109000
     26 C9          42.1480   -99.4740   -89.6520 ca         1 KBO      -0.059300
     27 C10         43.5750   -99.7730   -89.1980 c3         1 KBO       0.211100
     28 N1          44.5640   -99.7470   -90.3010 n3         1 KBO      -0.721600
     29 C14         44.6580   -98.4160   -90.9810 c6         1 KBO       0.163800
     30 C13         45.6940   -98.4170   -92.1510 c6         1 KBO       0.163800
     31 N2          47.0520   -98.8590   -91.7100 n3         1 KBO      -0.722600
     32 N3          49.7140  -101.0780   -93.7240 nb         1 KBO      -0.670000
     33 C22         51.7740  -102.3450   -93.7100 ca         1 KBO      -0.171000
     34 C20         51.5630  -100.3780   -92.3300 ca         1 KBO      -0.085000
     35 H1          37.0260   -93.7470   -89.7040 hc         1 KBO       0.048950
     36 H2          37.1760   -95.4880   -89.7260 hc         1 KBO       0.048950
     37 H3          37.3890   -94.6120   -91.9990 hc         1 KBO       0.040533
     38 H4          38.6550   -93.4720   -91.5310 hc         1 KBO       0.040533
     39 H5          38.9910   -95.2170   -91.5540 hc         1 KBO       0.040533
     40 H6          37.8900   -95.6670   -87.1850 hc         1 KBO       0.048950
     41 H7          39.0110   -94.4830   -86.5490 hc         1 KBO       0.048950
     42 H8          36.7610   -93.8330   -85.9030 hc         1 KBO       0.040533
     43 H9          37.2750   -92.6510   -87.1170 hc         1 KBO       0.040533
     44 H10         36.1530   -93.9580   -87.5580 hc         1 KBO       0.040533
     45 H11         42.1000   -97.5310   -88.7360 ha         1 KBO       0.145000
     46 H12         45.8730  -101.2040   -89.4390 h1         1 KBO       0.039200
     47 H13         46.2970   -99.5280   -89.0680 h1         1 KBO       0.039200
     48 H14         46.6640  -100.9630   -91.7590 h1         1 KBO       0.040700
     49 H15         47.9360  -100.4880   -90.6280 h1         1 KBO       0.040700
     50 H16         48.0370   -97.8490   -93.2920 h1         1 KBO       0.052700
     51 H17         47.7480   -99.5530   -93.5910 h1         1 KBO       0.052700
     52 H18         49.4610   -97.3660   -91.0490 ha         1 KBO       0.128000
     53 H19         51.7760   -97.6970   -90.2200 ha         1 KBO       0.116000
     54 H20         53.1260   -99.6180   -91.0300 ha         1 KBO       0.114000
     55 H21         53.3540  -101.6150   -92.4210 ha         1 KBO       0.118000
     56 H22         49.9980  -102.7870   -94.8750 h4         1 KBO       0.017100
     57 H23         38.4990   -98.7360   -90.8210 ha         1 KBO       0.107000
     58 H24         40.1540   -92.9910   -89.8540 h4         1 KBO       0.001200
     59 H25         38.5590   -96.7620   -89.7130 hn         1 KBO       0.153000
     60 H26         39.5750  -100.8950   -91.4030 ha         1 KBO       0.113000
     61 H27         41.9030  -101.3710   -90.6680 ha         1 KBO       0.128000
     62 H28         43.5760  -100.7650   -88.7260 h1         1 KBO       0.042200
     63 H29         43.8640   -99.0540   -88.4180 h1         1 KBO       0.042200
     64 H31         44.9500   -97.6420   -90.2560 h1         1 KBO       0.039200
     65 H32         43.6810   -98.1210   -91.3890 h1         1 KBO       0.039200
     66 H33         45.7430   -97.4040   -92.5760 h1         1 KBO       0.040700
     67 H34         45.3210   -99.0810   -92.9450 h1         1 KBO       0.040700
     68 H36         52.3360  -103.1950   -94.0850 ha         1 KBO       0.124000
@<TRIPOS>BOND
     1     1     2 1   
     2     1    20 2   
     3     1    23 1   
     4     2     3 1   
     5     2     5 1   
     6     2    21 1   
     7     3     4 1   
     8     3    35 1   
     9     3    36 1   
    10     4    37 1   
    11     4    38 1   
    12     4    39 1   
    13     5     6 1   
    14     5    40 1   
    15     5    41 1   
    16     6    42 1   
    17     6    43 1   
    18     6    44 1   
    19     7     8 ar  
    20     7    19 ar  
    21     7    23 1   
    22     8    26 ar  
    23     8    45 1   
    24     9    10 1   
    25     9    28 1   
    26     9    46 1   
    27     9    47 1   
    28    10    31 1   
    29    10    48 1   
    30    10    49 1   
    31    11    12 1   
    32    11    31 1   
    33    11    50 1   
    34    11    51 1   
    35    12    13 ar  
    36    12    18 ar  
    37    13    14 ar  
    38    13    52 1   
    39    14    15 ar  
    40    14    53 1   
    41    15    34 ar  
    42    15    54 1   
    43    16    33 ar  
    44    16    34 ar  
    45    16    55 1   
    46    17    32 ar  
    47    17    33 ar  
    48    17    56 1   
    49    18    32 ar  
    50    18    34 ar  
    51    19    24 ar  
    52    19    57 1   
    53    21    22 2   
    54    21    58 1   
    55    23    59 1   
    56    24    25 ar  
    57    24    60 1   
    58    25    26 ar  
    59    25    61 1   
    60    26    27 1   
    61    27    28 1   
    62    27    62 1   
    63    27    63 1   
    64    28    29 1   
    65    29    30 1   
    66    29    64 1   
    67    29    65 1   
    68    30    31 1   
    69    30    66 1   
    70    30    67 1   
    71    33    68 1   
@<TRIPOS>SUBSTRUCTURE
     1 KBO         1 TEMP              0 ****  ****    0 ROOT
