@<TRIPOS>MOLECULE
KBO
   68    71     1     0     0
SMALL
bcc


@<TRIPOS>ATOM
      1 C1          39.8290   -95.5520   -88.7370 c          1 KBO       0.685100
      2 C2          38.6650   -94.5720   -88.5650 c3         1 KBO      -0.256000
      3 C3          37.9570   -94.2920   -89.9110 c3         1 KBO      -0.062400
      4 C4          38.8650   -94.0660   -91.1150 c3         1 KBO      -0.094600
      5 C5          37.6840   -95.1170   -87.5090 c3         1 KBO      -0.062400
      6 C6          36.4270   -94.2780   -87.3030 c3         1 KBO      -0.094600
      7 C7          40.3210   -97.8360   -89.6020 ca         1 KBO       0.064600
      8 C8          41.6600   -97.9530   -89.2220 ca         1 KBO      -0.145000
      9 C11         46.0390   -99.8680   -89.8640 c6         1 KBO       0.163800
     10 C12         46.9210  -100.1360   -91.0670 c6         1 KBO       0.163800
     11 C15         47.9430   -99.1440   -93.0060 c3         1 KBO       0.211100
     12 C16         49.3740   -99.2940   -92.5540 ca         1 KBO      -0.122600
     13 C17         49.9560   -98.2900   -91.8180 ca         1 KBO      -0.100000
     14 C18         51.2860   -98.3710   -91.3670 ca         1 KBO      -0.125000
     15 C19         52.0440   -99.4730   -91.6540 ca         1 KBO      -0.112000
     16 C21         52.2240  -101.6940   -92.7210 ca         1 KBO      -0.077000
     17 C23         50.2880  -102.5160   -93.8390 ca         1 KBO       0.419200
     18 C24         50.1440  -100.4500   -92.8570 ca         1 KBO       0.405600
     19 C27         39.7350   -98.8560   -90.3520 ca         1 KBO      -0.184000
     20 O1          40.9570   -95.2400   -88.3950 o          1 KBO      -0.584100
     21 C           39.3310   -93.2850   -88.0930 c          1 KBO       0.603900
     22 O           39.2840   -92.8640   -86.9680 o          1 KBO      -0.500100
     23 N           39.4990   -96.7490   -89.2730 ns         1 KBO      -0.464100
     24 C26         40.4780   -99.9640   -90.7210 ca         1 KBO      -0.107000
     25 C25         41.8090  -100.0750   -90.3520 ca         1 KBO      -0.127000
     26 C9          42.4010   -99.0700   -89.5930 ca         1 KBO      -0.059300
     27 C10         43.8390   -99.2040   -89.1610 c3         1 KBO       0.211100
     28 N1          44.7280   -99.4140   -90.2860 n3         1 KBO      -0.721600
     29 C14         44.8520   -98.2260   -91.1080 c6         1 KBO       0.163800
     30 C13         45.7390   -98.4930   -92.3080 c6         1 KBO       0.163800
     31 N2          47.0490   -98.9420   -91.8790 n3         1 KBO      -0.722600
     32 N3          49.5770  -101.4560   -93.5680 nb         1 KBO      -0.670000
     33 C22         51.6290  -102.6900   -93.4410 ca         1 KBO      -0.254300
     34 C20         51.4880  -100.5310   -92.4020 ca         1 KBO      -0.150300
     35 H1          37.3160   -93.4160   -89.7790 hc         1 KBO       0.048950
     36 H2          37.2700   -95.1170   -90.1230 hc         1 KBO       0.048950
     37 H3          38.2610   -93.8160   -91.9870 hc         1 KBO       0.040533
     38 H4          39.5650   -93.2450   -90.9650 hc         1 KBO       0.040533
     39 H5          39.4440   -94.9540   -91.3690 hc         1 KBO       0.040533
     40 H6          37.3720   -96.1210   -87.8030 hc         1 KBO       0.048950
     41 H7          38.2100   -95.2340   -86.5600 hc         1 KBO       0.048950
     42 H8          35.8330   -94.7040   -86.4950 hc         1 KBO       0.040533
     43 H9          36.6500   -93.2470   -87.0370 hc         1 KBO       0.040533
     44 H10         35.7980   -94.2680   -88.1930 hc         1 KBO       0.040533
     45 H11         42.1370   -97.1800   -88.6400 ha         1 KBO       0.163000
     46 H12         45.9300  -100.7900   -89.2880 h1         1 KBO       0.039200
     47 H13         46.5370   -99.1310   -89.2100 h1         1 KBO       0.039200
     48 H14         46.4980  -100.9740   -91.6480 h1         1 KBO       0.040700
     49 H15         47.9080  -100.4490   -90.7200 h1         1 KBO       0.040700
     50 H16         47.8730   -98.2610   -93.6470 h1         1 KBO       0.052700
     51 H17         47.6460  -100.0040   -93.6200 h1         1 KBO       0.052700
     52 H18         49.3720   -97.4120   -91.5720 ha         1 KBO       0.146000
     53 H19         51.7050   -97.5550   -90.7930 ha         1 KBO       0.134000
     54 H20         53.0700   -99.5480   -91.3140 ha         1 KBO       0.132000
     55 H21         53.2510  -101.7810   -92.3890 ha         1 KBO       0.136000
     56 H22         49.7950  -103.2990   -94.4080 h4         1 KBO       0.017100
     57 H23         38.6950   -98.7790   -90.6490 ha         1 KBO       0.125000
     58 H24         39.8640   -92.7200   -88.8770 h4         1 KBO       0.001200
     59 H25         38.5330   -96.8670   -89.5430 hn         1 KBO       0.319500
     60 H26         40.0090  -100.7450   -91.3050 ha         1 KBO       0.131000
     61 H27         42.3890  -100.9390   -90.6510 ha         1 KBO       0.146000
     62 H28         43.9280  -100.0700   -88.4990 h1         1 KBO       0.042200
     63 H29         44.1290   -98.3250   -88.5620 h1         1 KBO       0.042200
     64 H31         45.2690   -97.3820   -90.5310 h1         1 KBO       0.039200
     65 H32         43.8640   -97.9190   -91.4570 h1         1 KBO       0.039200
     66 H33         45.8460   -97.5700   -92.8830 h1         1 KBO       0.040700
     67 H34         45.2470   -99.2310   -92.9650 h1         1 KBO       0.040700
     68 H36         52.1590  -103.5950   -93.7050 ha         1 KBO       0.142000
@<TRIPOS>BOND
     1     1     2 1   
     2     1    20 2   
     3     1    23 1   
     4     2     3 1   
     5     2     5 1   
     6     2    21 1   
     7     3     4 1   
     8     3    35 1   
     9     3    36 1   
    10     4    37 1   
    11     4    38 1   
    12     4    39 1   
    13     5     6 1   
    14     5    40 1   
    15     5    41 1   
    16     6    42 1   
    17     6    43 1   
    18     6    44 1   
    19     7     8 ar  
    20     7    19 ar  
    21     7    23 1   
    22     8    26 ar  
    23     8    45 1   
    24     9    10 1   
    25     9    28 1   
    26     9    46 1   
    27     9    47 1   
    28    10    31 1   
    29    10    48 1   
    30    10    49 1   
    31    11    12 1   
    32    11    31 1   
    33    11    50 1   
    34    11    51 1   
    35    12    13 ar  
    36    12    18 ar  
    37    13    14 ar  
    38    13    52 1   
    39    14    15 ar  
    40    14    53 1   
    41    15    34 ar  
    42    15    54 1   
    43    16    33 ar  
    44    16    34 ar  
    45    16    55 1   
    46    17    32 ar  
    47    17    33 ar  
    48    17    56 1   
    49    18    32 ar  
    50    18    34 ar  
    51    19    24 ar  
    52    19    57 1   
    53    21    22 2   
    54    21    58 1   
    55    23    59 1   
    56    24    25 ar  
    57    24    60 1   
    58    25    26 ar  
    59    25    61 1   
    60    26    27 1   
    61    27    28 1   
    62    27    62 1   
    63    27    63 1   
    64    28    29 1   
    65    29    30 1   
    66    29    64 1   
    67    29    65 1   
    68    30    31 1   
    69    30    66 1   
    70    30    67 1   
    71    33    68 1   
@<TRIPOS>SUBSTRUCTURE
     1 KBO         1 TEMP              0 ****  ****    0 ROOT
