@<TRIPOS>MOLECULE
KBP
   46    45     1     0     0
SMALL
No Charge or Current Charge


@<TRIPOS>ATOM
      1 CAA          1.2830    -0.2460    -0.7680 c          1 KBP       0.627700
      2 CAB         -0.0630    -0.9650    -0.7780 c3         1 KBP      -0.204400
      3 CAC         -1.1980    -0.0240    -0.3300 c3         1 KBP       0.177300
      4 CAD         -2.5900    -0.6920    -0.4390 c3         1 KBP      -0.109400
      5 CAE         -3.7730     0.2500    -0.1050 c3         1 KBP      -0.071400
      6 CAF         -5.1490    -0.4310    -0.2700 c3         1 KBP      -0.075400
      7 CAG         -6.3310     0.5070     0.0610 c3         1 KBP      -0.074400
      8 CAH         -7.7070    -0.1740    -0.1040 c3         1 KBP      -0.075400
      9 CAI         -8.8890     0.7630     0.2260 c3         1 KBP      -0.074400
     10 CAJ        -10.2630     0.0840     0.0610 c3         1 KBP      -0.089100
     11 OAM          1.6140     0.5420    -1.6430 o          1 KBP      -0.501100
     12 OAN         -0.9610     0.3690     1.0240 oh         1 KBP      -0.649000
     13 SAO          2.4290    -0.8290     0.5220 ss         1 KBP      -0.389600
     14 CAP          3.9360     0.1600     0.0930 c3         1 KBP       0.044600
     15 CAQ          5.0870    -0.1520     1.0690 c3         1 KBP       0.114000
     16 NAR          6.2940     0.6370     0.7920 ns         1 KBP      -0.511900
     17 CAS          7.1310     0.4390    -0.2810 c          1 KBP       0.600100
     18 CAT          8.3110     1.3980    -0.3570 c3         1 KBP      -0.180100
     19 OAY          6.9430    -0.4410    -1.1080 o          1 KBP      -0.601100
     20 HAB         -0.2700    -1.2970    -1.8010 hc         1 KBP       0.075200
     21 HABA        -0.0310    -1.8260    -0.1010 hc         1 KBP       0.075200
     22 HAC         -1.1900     0.8590    -0.9870 h1         1 KBP       0.089700
     23 HAD         -2.7210    -1.0630    -1.4630 hc         1 KBP       0.043200
     24 HADA        -2.6290    -1.5710     0.2170 hc         1 KBP       0.043200
     25 HAE         -3.6760     0.6120     0.9260 hc         1 KBP       0.047200
     26 HAEA        -3.7260     1.1300    -0.7580 hc         1 KBP       0.047200
     27 HAF         -5.2530    -0.7900    -1.3010 hc         1 KBP       0.036200
     28 HAFA        -5.1960    -1.3120     0.3830 hc         1 KBP       0.036200
     29 HAG         -6.2280     0.8660     1.0930 hc         1 KBP       0.038700
     30 HAGA        -6.2850     1.3880    -0.5910 hc         1 KBP       0.038700
     31 HAH         -7.8100    -0.5330    -1.1360 hc         1 KBP       0.036700
     32 HAHA        -7.7540    -1.0550     0.5480 hc         1 KBP       0.036700
     33 HAI         -8.7910     1.1230     1.2580 hc         1 KBP       0.036700
     34 HAIA        -8.8470     1.6450    -0.4260 hc         1 KBP       0.036700
     35 HAJ        -11.0680     0.7870     0.3060 hc         1 KBP       0.031700
     36 HAJA       -10.4060    -0.2560    -0.9710 hc         1 KBP       0.031700
     37 HAJB       -10.3490    -0.7820     0.7280 hc         1 KBP       0.031700
     38 HOAN        -1.2380    -0.3800     1.5930 ho         1 KBP       0.439000
     39 HAP          4.2430    -0.0790    -0.9330 h1         1 KBP       0.082200
     40 HAPA         3.6920     1.2290     0.1420 h1         1 KBP       0.082200
     41 HAQ          4.7590     0.0600     2.0950 h1         1 KBP       0.064700
     42 HAQA         5.3370    -1.2200     1.0100 h1         1 KBP       0.064700
     43 HNAR         6.5380     1.3890     1.4270 hn         1 KBP       0.314500
     44 HAT          7.9360     2.4270    -0.3500 hc         1 KBP       0.060700
     45 HATA         8.8730     1.3480     0.5830 hc         1 KBP       0.060700
     46 HATB         8.9550     1.2080    -1.2230 hc         1 KBP       0.060700
@<TRIPOS>BOND
     1     1     2 1   
     2     1    11 2   
     3     1    13 1   
     4     2     3 1   
     5     2    20 1   
     6     2    21 1   
     7     3     4 1   
     8     3    12 1   
     9     3    22 1   
    10     4     5 1   
    11     4    23 1   
    12     4    24 1   
    13     5     6 1   
    14     5    25 1   
    15     5    26 1   
    16     6     7 1   
    17     6    27 1   
    18     6    28 1   
    19     7     8 1   
    20     7    29 1   
    21     7    30 1   
    22     8     9 1   
    23     8    31 1   
    24     8    32 1   
    25     9    10 1   
    26     9    33 1   
    27     9    34 1   
    28    10    35 1   
    29    10    36 1   
    30    10    37 1   
    31    12    38 1   
    32    13    14 1   
    33    14    15 1   
    34    14    39 1   
    35    14    40 1   
    36    15    16 1   
    37    15    41 1   
    38    15    42 1   
    39    16    17 1   
    40    16    43 1   
    41    17    18 1   
    42    17    19 2   
    43    18    44 1   
    44    18    45 1   
    45    18    46 1   
@<TRIPOS>SUBSTRUCTURE
     1 KBP         1 TEMP              0 ****  ****    0 ROOT
