@<TRIPOS>MOLECULE
KBP
   46    45     1     0     0
SMALL
abcg2


@<TRIPOS>ATOM
      1 CAA          1.2310    -0.0310    -0.4870 c          1 KBP       0.627700
      2 CAB         -0.0960    -0.7450    -0.4530 c3         1 KBP      -0.204400
      3 CAC         -1.2540     0.2170    -0.1820 c3         1 KBP       0.177300
      4 CAD         -2.5850    -0.5240    -0.2100 c3         1 KBP      -0.109400
      5 CAE         -3.8000     0.3810    -0.0500 c3         1 KBP      -0.071400
      6 CAF         -5.1120    -0.3870    -0.1500 c3         1 KBP      -0.075400
      7 CAG         -6.3430     0.5030    -0.0250 c3         1 KBP      -0.074400
      8 CAH         -7.6520    -0.2690    -0.1350 c3         1 KBP      -0.075400
      9 CAI         -8.8870     0.6180    -0.0380 c3         1 KBP      -0.074400
     10 CAJ        -10.1860    -0.1670    -0.1560 c3         1 KBP      -0.089100
     11 OAM          1.4430     0.9650    -1.1300 o          1 KBP      -0.501100
     12 OAN         -1.0460     0.9250     1.0220 oh         1 KBP      -0.649000
     13 SAO          2.4630    -0.8190     0.5000 ss         1 KBP      -0.389600
     14 CAP          3.9150     0.2210     0.1790 c3         1 KBP       0.044600
     15 CAQ          5.1250    -0.4060     0.8690 c3         1 KBP       0.114000
     16 NAR          6.3120     0.3910     0.6780 ns         1 KBP      -0.511900
     17 CAS          7.0770     0.3180    -0.4260 c          1 KBP       0.600100
     18 CAT          8.2660     1.2460    -0.4520 c3         1 KBP      -0.180100
     19 OAY          6.8370    -0.4530    -1.3450 o          1 KBP      -0.601100
     20 HAB         -0.2310    -1.2170    -1.4310 hc         1 KBP       0.075200
     21 HABA        -0.0880    -1.5530     0.2850 hc         1 KBP       0.075200
     22 HAC         -1.2620     0.9770    -0.9690 h1         1 KBP       0.089700
     23 HAD         -2.6570    -1.0600    -1.1620 hc         1 KBP       0.043200
     24 HADA        -2.5900    -1.2950     0.5700 hc         1 KBP       0.043200
     25 HAE         -3.7570     0.9000     0.9120 hc         1 KBP       0.047200
     26 HAEA        -3.7760     1.1590    -0.8200 hc         1 KBP       0.047200
     27 HAF         -5.1480    -0.9200    -1.1070 hc         1 KBP       0.036200
     28 HAFA        -5.1420    -1.1590     0.6270 hc         1 KBP       0.036200
     29 HAG         -6.3130     1.0360     0.9320 hc         1 KBP       0.038700
     30 HAGA        -6.3110     1.2750    -0.8020 hc         1 KBP       0.038700
     31 HAH         -7.6730    -0.8140    -1.0850 hc         1 KBP       0.036700
     32 HAHA        -7.6910    -1.0320     0.6510 hc         1 KBP       0.036700
     33 HAI         -8.8700     1.1610     0.9120 hc         1 KBP       0.036700
     34 HAIA        -8.8470     1.3800    -0.8230 hc         1 KBP       0.036700
     35 HAJ        -11.0590     0.4840    -0.0930 hc         1 KBP       0.031700
     36 HAJA       -10.2390    -0.6970    -1.1090 hc         1 KBP       0.031700
     37 HAJB       -10.2720    -0.9110     0.6380 hc         1 KBP       0.031700
     38 HOAN        -1.1320     0.3070     1.7560 ho         1 KBP       0.439000
     39 HAP          4.0760     0.2800    -0.8960 h1         1 KBP       0.082200
     40 HAPA         3.7300     1.2230     0.5650 h1         1 KBP       0.082200
     41 HAQ          4.9490    -0.4870     1.9410 h1         1 KBP       0.064700
     42 HAQA         5.2970    -1.4140     0.4900 h1         1 KBP       0.064700
     43 HNAR         6.5330     1.0750     1.3810 hn         1 KBP       0.314500
     44 HAT          8.3250     1.9030     0.4130 hc         1 KBP       0.060700
     45 HATA         9.1820     0.6570    -0.5000 hc         1 KBP       0.060700
     46 HATB         8.2270     1.8580    -1.3520 hc         1 KBP       0.060700
@<TRIPOS>BOND
     1     1     2 1   
     2     1    11 2   
     3     1    13 1   
     4     2     3 1   
     5     2    20 1   
     6     2    21 1   
     7     3     4 1   
     8     3    12 1   
     9     3    22 1   
    10     4     5 1   
    11     4    23 1   
    12     4    24 1   
    13     5     6 1   
    14     5    25 1   
    15     5    26 1   
    16     6     7 1   
    17     6    27 1   
    18     6    28 1   
    19     7     8 1   
    20     7    29 1   
    21     7    30 1   
    22     8     9 1   
    23     8    31 1   
    24     8    32 1   
    25     9    10 1   
    26     9    33 1   
    27     9    34 1   
    28    10    35 1   
    29    10    36 1   
    30    10    37 1   
    31    12    38 1   
    32    13    14 1   
    33    14    15 1   
    34    14    39 1   
    35    14    40 1   
    36    15    16 1   
    37    15    41 1   
    38    15    42 1   
    39    16    17 1   
    40    16    43 1   
    41    17    18 1   
    42    17    19 2   
    43    18    44 1   
    44    18    45 1   
    45    18    46 1   
@<TRIPOS>SUBSTRUCTURE
     1 KBP         1 TEMP              0 ****  ****    0 ROOT
