@<TRIPOS>MOLECULE
KBQ
   16    17     1     0     0
SMALL
No Charge or Current Charge


@<TRIPOS>ATOM
      1 N1         -68.4530    90.2080   160.9190 ns         1 KBQ      -0.414500
      2 N3         -70.4140    89.0110   160.9240 ns         1 KBQ      -0.435600
      3 C4         -69.8120    87.9970   161.6310 cc         1 KBQ       0.009600
      4 C5         -68.5130    88.0850   161.9890 cd         1 KBQ      -0.270600
      5 C6         -67.7210    89.2800   161.6220 c          1 KBQ       0.616600
      6 C7         -68.1680    86.9130   162.6980 cd         1 KBQ      -0.080000
      7 C8         -69.2750    86.1010   162.7700 cc         1 KBQ      -0.198000
      8 C2         -69.7660    90.1530   160.5390 cs         1 KBQ       0.464400
      9 N9         -70.3020    86.7850   162.1000 na         1 KBQ      -0.120000
     10 O6         -66.5450    89.4450   161.9020 o          1 KBQ      -0.505000
     11 S2         -70.5120    91.3700   159.6830 s          1 KBQ      -0.580400
     12 H1         -67.9460    91.0370   160.6510 hn         1 KBQ       0.360500
     13 H2         -71.3920    88.9430   160.6550 hn         1 KBQ       0.477000
     14 H3         -67.1900    86.6870   163.1170 ha         1 KBQ       0.157000
     15 H4         -69.4140    85.1270   163.2270 h4         1 KBQ       0.160000
     16 H5         -71.2520    86.4480   161.9780 hn         1 KBQ       0.359000
@<TRIPOS>BOND
     1     1     5 1   
     2     1     8 1   
     3     1    12 1   
     4     2     3 1   
     5     2     8 1   
     6     2    13 1   
     7     3     4 2   
     8     3     9 1   
     9     4     5 1   
    10     4     6 1   
    11     5    10 2   
    12     6     7 2   
    13     6    14 1   
    14     7     9 1   
    15     7    15 1   
    16     8    11 2   
    17     9    16 1   
@<TRIPOS>SUBSTRUCTURE
     1 KBQ         1 TEMP              0 ****  ****    0 ROOT
