@<TRIPOS>MOLECULE
KBQ
   16    17     1     0     0
SMALL
abcg2


@<TRIPOS>ATOM
      1 N1         -68.4720    90.1830   160.9260 ns         1 KBQ      -0.414500
      2 N3         -70.4240    88.9820   160.9370 ns         1 KBQ      -0.435600
      3 C4         -69.7760    88.0080   161.6360 cc         1 KBQ       0.009600
      4 C5         -68.4480    88.0930   162.0050 cd         1 KBQ      -0.270600
      5 C6         -67.7000    89.2550   161.6430 c          1 KBQ       0.616600
      6 C7         -68.1420    86.8960   162.7140 cd         1 KBQ      -0.080000
      7 C8         -69.2860    86.1560   162.7370 cc         1 KBQ      -0.198000
      8 C2         -69.7770    90.1050   160.5610 cs         1 KBQ       0.464400
      9 N9         -70.2800    86.8480   162.0740 na         1 KBQ      -0.120000
     10 O6         -66.5330    89.4920   161.8860 o          1 KBQ      -0.505000
     11 S2         -70.5330    91.3170   159.7040 s          1 KBQ      -0.580400
     12 H1         -67.9940    91.0270   160.6350 hn         1 KBQ       0.360500
     13 H2         -71.3970    88.8890   160.6780 hn         1 KBQ       0.477000
     14 H3         -67.1950    86.6220   163.1490 ha         1 KBQ       0.157000
     15 H4         -69.4910    85.1910   163.1670 h4         1 KBQ       0.160000
     16 H5         -71.2270    86.5250   161.9510 hn         1 KBQ       0.359000
@<TRIPOS>BOND
     1     1     5 1   
     2     1     8 1   
     3     1    12 1   
     4     2     3 1   
     5     2     8 1   
     6     2    13 1   
     7     3     4 2   
     8     3     9 1   
     9     4     5 1   
    10     4     6 1   
    11     5    10 2   
    12     6     7 2   
    13     6    14 1   
    14     7     9 1   
    15     7    15 1   
    16     8    11 2   
    17     9    16 1   
@<TRIPOS>SUBSTRUCTURE
     1 KBQ         1 TEMP              0 ****  ****    0 ROOT
