@<TRIPOS>MOLECULE
KBR
   39    39     1     0     0
SMALL
bcc


@<TRIPOS>ATOM
      1 C4           2.0570     0.8850     1.0380 c6         1 KBR      -0.107400
      2 C5           1.8070     0.0940    -0.2460 c6         1 KBR       0.113700
      3 C6          -0.5680    -0.5090    -0.0730 c          1 KBR       0.749100
      4 C11          2.3290    -1.3410    -0.2240 c3         1 KBR      -0.079400
      5 C7          -2.9340    -0.7730     0.1340 c3         1 KBR       0.171100
      6 C8          -4.0600     0.2440     0.2210 c3         1 KBR      -0.079400
      7 C9          -3.7640     1.4150     1.1490 c3         1 KBR      -0.087100
      8 C10         -3.2790    -1.9450    -0.7650 c3         1 KBR      -0.116100
      9 C12          3.8320    -1.3630    -0.4500 c3         1 KBR       0.139400
     10 N1           0.4010     0.2600    -0.6380 n          1 KBR      -0.438800
     11 C3           1.7160     2.3610     0.8230 c6         1 KBR      -0.075400
     12 O2          -1.7900    -0.0720    -0.3840 os         1 KBR      -0.441900
     13 O1          -0.3710    -1.4960     0.6070 o          1 KBR      -0.589000
     14 C1           0.1250     1.6520    -0.9950 c6         1 KBR       0.093000
     15 C2           0.3260     2.5530     0.2190 c6         1 KBR      -0.110400
     16 O3           4.2740    -2.7010    -0.3940 oh         1 KBR      -0.593800
     17 H1           1.4570     0.4590     1.8470 hc         1 KBR       0.054700
     18 H2           3.1020     0.7920     1.3420 hc         1 KBR       0.054700
     19 H3           2.3570     0.6020    -1.0490 h1         1 KBR       0.047700
     20 H4           2.0960    -1.8290     0.7220 hc         1 KBR       0.077200
     21 H5           1.8510    -1.9190    -1.0190 hc         1 KBR       0.077200
     22 H6          -2.7050    -1.1350     1.1410 h1         1 KBR       0.064700
     23 H8          -4.9460    -0.2860     0.5790 hc         1 KBR       0.048700
     24 H9          -3.5240     1.0680     2.1560 hc         1 KBR       0.035033
     25 H10         -2.9230     2.0110     0.7940 hc         1 KBR       0.035033
     26 H11         -4.6270     2.0750     1.2240 hc         1 KBR       0.035033
     27 H12         -2.4680    -2.6710    -0.8090 hc         1 KBR       0.048033
     28 H13         -4.1620    -2.4580    -0.3820 hc         1 KBR       0.048033
     29 H14         -3.5000    -1.6090    -1.7800 hc         1 KBR       0.048033
     30 H15          4.0570    -0.9080    -1.4250 h1         1 KBR       0.012200
     31 H16          4.3350    -0.7480     0.3070 h1         1 KBR       0.012200
     32 H17          1.7990     2.9110     1.7620 hc         1 KBR       0.040200
     33 H18          2.4590     2.7920     0.1440 hc         1 KBR       0.040200
     34 H19          0.8260     1.9300    -1.7870 h1         1 KBR       0.062200
     35 H20         -0.8730     1.7560    -1.4090 h1         1 KBR       0.062200
     36 H21         -0.4460     2.3300     0.9630 hc         1 KBR       0.048700
     37 H22          0.1820     3.5960    -0.0740 hc         1 KBR       0.048700
     38 H23          5.2310    -2.7050    -0.4920 ho         1 KBR       0.402000
     39 H7          -4.3050     0.6070    -0.7820 hc         1 KBR       0.048700
@<TRIPOS>BOND
     1     1     2 1   
     2     1    11 1   
     3     1    17 1   
     4     1    18 1   
     5     2     4 1   
     6     2    10 1   
     7     2    19 1   
     8     3    10 1   
     9     3    12 1   
    10     3    13 2   
    11     4     9 1   
    12     4    20 1   
    13     4    21 1   
    14     5     6 1   
    15     5     8 1   
    16     5    12 1   
    17     5    22 1   
    18     6     7 1   
    19     6    23 1   
    20     6    39 1   
    21     7    24 1   
    22     7    25 1   
    23     7    26 1   
    24     8    27 1   
    25     8    28 1   
    26     8    29 1   
    27     9    16 1   
    28     9    30 1   
    29     9    31 1   
    30    10    14 1   
    31    11    15 1   
    32    11    32 1   
    33    11    33 1   
    34    14    15 1   
    35    14    34 1   
    36    14    35 1   
    37    15    36 1   
    38    15    37 1   
    39    16    38 1   
@<TRIPOS>SUBSTRUCTURE
     1 KBR         1 TEMP              0 ****  ****    0 ROOT
