@<TRIPOS>MOLECULE
KBR
   39    39     1     0     0
SMALL
No Charge or Current Charge


@<TRIPOS>ATOM
      1 C4           2.3780     1.1020     0.8460 c6         1 KBR      -0.107400
      2 C5           1.8460     0.1470    -0.2640 c6         1 KBR       0.113700
      3 C6          -0.6480    -0.5460    -0.0130 c          1 KBR       0.633100
      4 C11          2.3410    -1.3210    -0.0670 c3         1 KBR      -0.079400
      5 C7          -3.0570    -0.8390     0.0830 c3         1 KBR       0.194300
      6 C8          -4.2570     0.1280     0.2210 c3         1 KBR      -0.079400
      7 C9          -4.1130     1.1420     1.3760 c3         1 KBR      -0.087100
      8 C10         -3.2580    -1.8640    -1.0560 c3         1 KBR      -0.116100
      9 C12          3.8580    -1.5240    -0.2610 c3         1 KBR       0.162600
     10 N1           0.3670     0.3660    -0.4110 n          1 KBR      -0.371800
     11 C3           2.0360     2.5820     0.5280 c6         1 KBR      -0.075400
     12 O2          -1.9020    -0.0370    -0.2280 os         1 KBR      -0.465100
     13 O1          -0.4450    -1.6460     0.4800 o          1 KBR      -0.540000
     14 C1           0.0640     1.7580    -0.8540 c6         1 KBR       0.093000
     15 C2           0.5280     2.7620     0.2260 c6         1 KBR      -0.110400
     16 O3           4.1750    -2.9160    -0.1620 oh         1 KBR      -0.656000
     17 H1           1.9400     0.8210     1.8140 hc         1 KBR       0.054700
     18 H2           3.4650     1.0080     0.9560 hc         1 KBR       0.054700
     19 H3           2.2990     0.4740    -1.2120 h1         1 KBR       0.047700
     20 H4           2.0720    -1.6810     0.9330 hc         1 KBR       0.077200
     21 H5           1.8310    -1.9680    -0.7900 hc         1 KBR       0.077200
     22 H6          -2.9300    -1.3690     1.0380 h1         1 KBR       0.064700
     23 H8          -5.1690    -0.4600     0.3840 hc         1 KBR       0.048700
     24 H9          -3.9830     0.6230     2.3340 hc         1 KBR       0.035033
     25 H10         -3.2480     1.7980     1.2180 hc         1 KBR       0.035033
     26 H11         -5.0080     1.7710     1.4460 hc         1 KBR       0.035033
     27 H12         -2.4190    -2.5670    -1.1090 hc         1 KBR       0.048033
     28 H13         -4.1720    -2.4460    -0.8870 hc         1 KBR       0.048033
     29 H14         -3.3480    -1.3570    -2.0240 hc         1 KBR       0.048033
     30 H15          4.1510    -1.1400    -1.2470 h1         1 KBR       0.012200
     31 H16          4.4100    -0.9610     0.5020 h1         1 KBR       0.012200
     32 H17          2.3310     3.2250     1.3690 hc         1 KBR       0.040200
     33 H18          2.6240     2.9140    -0.3390 hc         1 KBR       0.040200
     34 H19          0.5990     1.9600    -1.7930 h1         1 KBR       0.062200
     35 H20         -1.0020     1.9130    -1.0640 h1         1 KBR       0.062200
     36 H21         -0.0570     2.6090     1.1440 hc         1 KBR       0.048700
     37 H22          0.3310     3.7900    -0.1070 hc         1 KBR       0.048700
     38 H23          5.1460    -2.9980    -0.2940 ho         1 KBR       0.441000
     39 H7          -4.3980     0.6720    -0.7210 hc         1 KBR       0.048700
@<TRIPOS>BOND
     1     1     2 1   
     2     1    11 1   
     3     1    17 1   
     4     1    18 1   
     5     2     4 1   
     6     2    10 1   
     7     2    19 1   
     8     3    10 1   
     9     3    12 1   
    10     3    13 2   
    11     4     9 1   
    12     4    20 1   
    13     4    21 1   
    14     5     6 1   
    15     5     8 1   
    16     5    12 1   
    17     5    22 1   
    18     6     7 1   
    19     6    23 1   
    20     6    39 1   
    21     7    24 1   
    22     7    25 1   
    23     7    26 1   
    24     8    27 1   
    25     8    28 1   
    26     8    29 1   
    27     9    16 1   
    28     9    30 1   
    29     9    31 1   
    30    10    14 1   
    31    11    15 1   
    32    11    32 1   
    33    11    33 1   
    34    14    15 1   
    35    14    34 1   
    36    14    35 1   
    37    15    36 1   
    38    15    37 1   
    39    16    38 1   
@<TRIPOS>SUBSTRUCTURE
     1 KBR         1 TEMP              0 ****  ****    0 ROOT
