@<TRIPOS>MOLECULE
KBS
   46    47     1     0     0
SMALL
No Charge or Current Charge


@<TRIPOS>ATOM
      1 C1          -1.5790     0.5360     0.7810 ca         1 KBS       0.018000
      2 C2           5.3910    -0.8040     0.1070 ca         1 KBS       0.142100
      3 C3          -0.5450     1.3660     0.3030 ca         1 KBS      -0.162600
      4 C4           0.4420     0.8230    -0.5560 ca         1 KBS      -0.035000
      5 C5           3.1990     0.7970    -0.6570 ca         1 KBS      -0.223000
      6 C8          -3.9270    -2.1450    -2.2710 c3         1 KBS      -0.101100
      7 C9          -5.2250     0.0040    -1.8700 c3         1 KBS      -0.101100
      8 C10          4.2550     0.5730    -1.5580 ca         1 KBS      -0.029000
      9 C11          5.3480    -0.2260    -1.1800 ca         1 KBS      -0.194500
     10 N1          -4.3490    -1.2960     0.1000 n3         1 KBS      -0.744500
     11 C12         -1.6480    -0.8180     0.3960 ca         1 KBS      -0.340500
     12 C13          0.3640    -0.5300    -0.9380 ca         1 KBS      -0.175000
     13 C14          4.3360    -0.5720     1.0040 ca         1 KBS      -0.194500
     14 C15          3.2430     0.2260     0.6290 ca         1 KBS      -0.029000
     15 C16          7.5640    -1.8950    -0.3100 c3         1 KBS       0.152900
     16 C17         -0.5190     2.8070     0.7370 c          1 KBS       0.713600
     17 C19         -0.6730    -1.3500    -0.4690 ca         1 KBS      -0.031000
     18 O1          -3.2630    -1.4320     2.3850 o          1 KBS      -0.557000
     19 O2          -2.7650    -3.2450     0.6360 o          1 KBS      -0.557000
     20 O4          -0.5370     3.6750    -0.1240 o          1 KBS      -0.696500
     21 S1          -3.0020    -1.8430     1.0010 sy         1 KBS       1.168600
     22 S2           1.8120     1.8230    -1.1540 ss         1 KBS       0.207000
     23 H1          -2.3380     0.9530     1.4430 ha         1 KBS       0.157000
     24 H2          -5.5000    -3.0940    -0.0190 h1         1 KBS       0.042367
     25 H3          -5.7580    -2.1440     1.4590 h1         1 KBS       0.042367
     26 H4          -6.4640    -1.6000    -0.0640 h1         1 KBS       0.042367
     27 H5          -3.2060    -0.3300    -1.4100 h1         1 KBS       0.084700
     28 H6          -3.7350    -1.8030    -3.2950 hc         1 KBS       0.039867
     29 H7          -3.0710    -2.7560    -1.9650 hc         1 KBS       0.039867
     30 H8          -4.8190    -2.7810    -2.2910 hc         1 KBS       0.039867
     31 H9          -5.3860     0.8450    -1.1850 hc         1 KBS       0.039867
     32 H10         -4.9330     0.4140    -2.8440 hc         1 KBS       0.039867
     33 H11         -6.1750    -0.5260    -2.0010 hc         1 KBS       0.039867
     34 H12          4.2280     1.0160    -2.5520 ha         1 KBS       0.124500
     35 H13          6.1480    -0.3840    -1.8980 ha         1 KBS       0.112500
     36 H16          1.1180    -0.9510    -1.6000 ha         1 KBS       0.107000
     37 H17          4.3670    -1.0130     1.9970 ha         1 KBS       0.112500
     38 H18          2.4340     0.4000     1.3380 ha         1 KBS       0.124500
     39 H19          8.2760    -2.5380     0.2220 h1         1 KBS       0.035367
     40 H20          7.2430    -2.4210    -1.2180 h1         1 KBS       0.035367
     41 H21          8.0880    -0.9750    -0.6000 h1         1 KBS       0.035367
     42 H23         -0.7120    -2.3930    -0.7790 ha         1 KBS       0.108000
     43 OXT         -0.5620     3.0410     1.9360 o          1 KBS      -0.696500
     44 C6          -5.5780    -2.0730     0.3780 c3         1 KBS       0.190100
     45 C7          -4.1200    -0.9320    -1.3280 c3         1 KBS       0.221500
     46 O3           6.4370    -1.5960     0.5330 os         1 KBS      -0.348100
@<TRIPOS>BOND
     1     1     3 ar  
     2     1    11 ar  
     3     1    23 1   
     4     2     9 ar  
     5     2    13 ar  
     6     2    46 1   
     7     3     4 ar  
     8     3    16 1   
     9     4    12 ar  
    10     4    22 1   
    11     5     8 ar  
    12     5    14 ar  
    13     5    22 1   
    14     6    28 1   
    15     6    29 1   
    16     6    30 1   
    17     6    45 1   
    18     7    31 1   
    19     7    32 1   
    20     7    33 1   
    21     7    45 1   
    22     8     9 ar  
    23     8    34 1   
    24     9    35 1   
    25    10    21 1   
    26    10    44 1   
    27    10    45 1   
    28    11    17 ar  
    29    11    21 1   
    30    12    17 ar  
    31    12    36 1   
    32    13    14 ar  
    33    13    37 1   
    34    14    38 1   
    35    15    39 1   
    36    15    40 1   
    37    15    41 1   
    38    15    46 1   
    39    16    20 1   
    40    16    43 1   
    41    17    42 1   
    42    18    21 2   
    43    19    21 2   
    44    24    44 1   
    45    25    44 1   
    46    26    44 1   
    47    27    45 1   
@<TRIPOS>SUBSTRUCTURE
     1 KBS         1 TEMP              0 ****  ****    0 ROOT
