@<TRIPOS>MOLECULE
KBS
   46    47     1     0     0
SMALL
bcc


@<TRIPOS>ATOM
      1 C1          -1.8920     1.1850     0.6660 ca         1 KBS       0.000000
      2 C2           5.1730    -1.2740    -0.1470 ca         1 KBS       0.142100
      3 C3          -0.7340     1.8630     0.3070 ca         1 KBS      -0.162600
      4 C4           0.4720     1.1470     0.2100 ca         1 KBS       0.091900
      5 C5           3.1600     0.6680    -0.1850 ca         1 KBS      -0.096100
      6 C8          -3.4160    -0.4620    -2.2670 c3         1 KBS      -0.101100
      7 C9          -5.7560    -1.2200    -1.7050 c3         1 KBS      -0.101100
      8 C10          3.4900    -0.0330    -1.3370 ca         1 KBS      -0.047000
      9 C11          4.4850    -1.0020    -1.3290 ca         1 KBS      -0.212500
     10 N1          -3.9390    -1.6550    -0.1270 n3         1 KBS      -0.744500
     11 C12         -1.8780    -0.1740     0.9250 ca         1 KBS      -0.340500
     12 C13          0.4710    -0.2250     0.4820 ca         1 KBS      -0.193000
     13 C14          4.8510    -0.5670     1.0150 ca         1 KBS      -0.212500
     14 C15          3.8600     0.3950     0.9910 ca         1 KBS      -0.047000
     15 C16          6.5160    -2.9360    -1.1770 c3         1 KBS       0.129700
     16 C17         -0.8340     3.3560     0.0410 c          1 KBS       0.924200
     17 C19         -0.6870    -0.8860     0.8390 ca         1 KBS      -0.049000
     18 O1          -4.3540    -0.0380     1.7400 o          1 KBS      -0.627800
     19 O2          -3.0630    -2.1490     2.1550 o          1 KBS      -0.627800
     20 O4           0.2250     3.9130    -0.3080 o          1 KBS      -0.801800
     21 S1          -3.3820    -1.0230     1.2900 sy         1 KBS       1.310200
     22 S2           1.9690     1.9830    -0.2410 ss         1 KBS      -0.046800
     23 H1          -2.8060     1.7580     0.7430 ha         1 KBS       0.175000
     24 H2          -2.2670    -2.6970    -0.9650 h1         1 KBS       0.042367
     25 H3          -3.2710    -3.6260     0.1670 h1         1 KBS       0.042367
     26 H4          -3.8730    -3.2600    -1.4350 h1         1 KBS       0.042367
     27 H5          -4.6310     0.2350    -0.6550 h1         1 KBS       0.084700
     28 H6          -3.7750     0.3450    -2.9050 hc         1 KBS       0.039867
     29 H7          -2.4410    -0.1680    -1.8770 hc         1 KBS       0.039867
     30 H8          -3.2820    -1.3420    -2.8980 hc         1 KBS       0.039867
     31 H9          -6.4940    -1.3240    -0.9100 hc         1 KBS       0.039867
     32 H10         -6.1470    -0.5180    -2.4420 hc         1 KBS       0.039867
     33 H11         -5.6470    -2.1860    -2.2010 hc         1 KBS       0.039867
     34 H12          2.9650     0.1720    -2.2610 ha         1 KBS       0.142500
     35 H13          4.7100    -1.5260    -2.2480 ha         1 KBS       0.130500
     36 H16          1.3850    -0.7990     0.4250 ha         1 KBS       0.125000
     37 H17          5.3890    -0.7740     1.9320 ha         1 KBS       0.130500
     38 H18          3.6230     0.9380     1.8980 ha         1 KBS       0.142500
     39 H19          7.3120    -3.6080    -0.8640 h1         1 KBS       0.035367
     40 H20          5.6810    -3.5310    -1.5550 h1         1 KBS       0.035367
     41 H21          6.8910    -2.2990    -1.9820 h1         1 KBS       0.035367
     42 H23         -0.6450    -1.9460     1.0530 ha         1 KBS       0.126000
     43 OXT         -1.9470     3.8870     0.1890 o          1 KBS      -0.801800
     44 C6          -3.2870    -2.8660    -0.6080 c3         1 KBS       0.190100
     45 C7          -4.4300    -0.7130    -1.1550 c3         1 KBS       0.221500
     46 O3           6.1530    -2.1850    -0.0340 os         1 KBS      -0.324900
@<TRIPOS>BOND
     1     1     3 ar  
     2     1    11 ar  
     3     1    23 1   
     4     2     9 ar  
     5     2    13 ar  
     6     2    46 1   
     7     3     4 ar  
     8     3    16 1   
     9     4    12 ar  
    10     4    22 1   
    11     5     8 ar  
    12     5    14 ar  
    13     5    22 1   
    14     6    28 1   
    15     6    29 1   
    16     6    30 1   
    17     6    45 1   
    18     7    31 1   
    19     7    32 1   
    20     7    33 1   
    21     7    45 1   
    22     8     9 ar  
    23     8    34 1   
    24     9    35 1   
    25    10    21 1   
    26    10    44 1   
    27    10    45 1   
    28    11    17 ar  
    29    11    21 1   
    30    12    17 ar  
    31    12    36 1   
    32    13    14 ar  
    33    13    37 1   
    34    14    38 1   
    35    15    39 1   
    36    15    40 1   
    37    15    41 1   
    38    15    46 1   
    39    16    20 1   
    40    16    43 1   
    41    17    42 1   
    42    18    21 2   
    43    19    21 2   
    44    24    44 1   
    45    25    44 1   
    46    26    44 1   
    47    27    45 1   
@<TRIPOS>SUBSTRUCTURE
     1 KBS         1 TEMP              0 ****  ****    0 ROOT
