@<TRIPOS>MOLECULE
KBT
   49    50     1     0     0
SMALL
bcc


@<TRIPOS>ATOM
      1 C1           3.0910     1.8710    -0.1560 c3         1 KBT      -0.102400
      2 C2           3.2080     3.3560    -0.4740 c3         1 KBT      -0.071400
      3 C3           4.3640     4.0180     0.2610 c3         1 KBT      -0.088100
      4 C4           1.9700     1.2210    -0.9550 c3         1 KBT       0.104000
      5 N5           1.7420    -0.1820    -0.5930 n          1 KBT      -0.368000
      6 C6           0.8080    -0.5520     0.3430 cc         1 KBT       0.017400
      7 C7           0.0110     0.5750     0.9640 c          1 KBT       0.588900
      8 O8           0.4620     1.1580     1.9200 o          1 KBT      -0.482100
      9 C9          -1.3050     0.8940     0.3680 ca         1 KBT      -0.182600
     10 C10         -1.7550     0.2250    -0.7630 ca         1 KBT      -0.049000
     11 C11         -2.9980     0.5590    -1.2890 ca         1 KBT      -0.022000
     12 C12         -3.4750    -0.1200    -2.4510 cg         1 KBT       0.225800
     13 N13         -3.8640    -0.6770    -3.3810 n1         1 KBT      -0.344800
     14 C14         -3.7840     1.5440    -0.6960 ca         1 KBT      -0.062000
     15 C15         -3.3380     2.2190     0.4370 ca         1 KBT      -0.087300
     16 C16         -4.1950     3.2600     1.0900 c3         1 KBT      -0.050800
     17 C17         -2.0940     1.8850     0.9540 ca         1 KBT      -0.056000
     18 C18          0.5840    -1.8230     0.7400 cd         1 KBT      -0.231400
     19 C19         -0.4740    -2.1850     1.7560 c3         1 KBT       0.011500
     20 C20         -1.5430    -3.1140     1.1800 c3         1 KBT      -0.088100
     21 C21          0.1310    -2.7370     3.0470 c3         1 KBT      -0.088100
     22 C22          1.4200    -2.8620     0.1590 c          1 KBT       0.732700
     23 O23          1.3630    -4.0490     0.4200 o          1 KBT      -0.596500
     24 N24          2.3430    -2.4060    -0.7630 ns         1 KBT      -0.601500
     25 C25          2.5650    -1.1210    -1.1740 c          1 KBT       0.824500
     26 O26          3.4190    -0.8380    -1.9880 o          1 KBT      -0.624500
     27 H1           4.0350     1.3680    -0.3820 hc         1 KBT       0.061200
     28 H1A          2.9110     1.7360     0.9140 hc         1 KBT       0.061200
     29 H2           3.3350     3.4910    -1.5520 hc         1 KBT       0.038200
     30 H2A          2.2710     3.8570    -0.2120 hc         1 KBT       0.038200
     31 H3           4.2630     3.9020     1.3420 hc         1 KBT       0.035700
     32 H3A          5.3190     3.5780    -0.0300 hc         1 KBT       0.035700
     33 H3B          4.4110     5.0850     0.0460 hc         1 KBT       0.035700
     34 H4           1.0370     1.7700    -0.8280 h1         1 KBT       0.065200
     35 H4A          2.1880     1.2600    -2.0200 h1         1 KBT       0.065200
     36 H10         -1.1590    -0.5400    -1.2420 ha         1 KBT       0.156000
     37 H14         -4.7490     1.7850    -1.1230 ha         1 KBT       0.149000
     38 H16         -4.9240     2.7920     1.7540 hc         1 KBT       0.051367
     39 H16A        -3.6000     3.9500     1.6850 hc         1 KBT       0.051367
     40 H16B        -4.7510     3.8370     0.3530 hc         1 KBT       0.051367
     41 H17         -1.7280     2.4040     1.8320 ha         1 KBT       0.156000
     42 H19         -0.9930    -1.2650     2.0390 hc         1 KBT       0.037700
     43 H20         -1.1480    -4.1050     0.9630 hc         1 KBT       0.042200
     44 H20A        -2.3580    -3.2270     1.8960 hc         1 KBT       0.042200
     45 H20B        -1.9680    -2.7080     0.2600 hc         1 KBT       0.042200
     46 H21          0.8720    -2.0500     3.4580 hc         1 KBT       0.042200
     47 H21A        -0.6510    -2.8680     3.7960 hc         1 KBT       0.042200
     48 H21B         0.6090    -3.7030     2.8920 hc         1 KBT       0.042200
     49 HN24         2.9470    -3.1040    -1.1790 hn         1 KBT       0.346500
@<TRIPOS>BOND
     1     1     2 1   
     2     1     4 1   
     3     1    27 1   
     4     1    28 1   
     5     2     3 1   
     6     2    29 1   
     7     2    30 1   
     8     3    31 1   
     9     3    32 1   
    10     3    33 1   
    11     4     5 1   
    12     4    34 1   
    13     4    35 1   
    14     5     6 1   
    15     5    25 1   
    16     6     7 1   
    17     6    18 2   
    18     7     8 2   
    19     7     9 1   
    20     9    10 ar  
    21     9    17 ar  
    22    10    11 ar  
    23    10    36 1   
    24    11    12 1   
    25    11    14 ar  
    26    12    13 3   
    27    14    15 ar  
    28    14    37 1   
    29    15    16 1   
    30    15    17 ar  
    31    16    38 1   
    32    16    39 1   
    33    16    40 1   
    34    17    41 1   
    35    18    19 1   
    36    18    22 1   
    37    19    20 1   
    38    19    21 1   
    39    19    42 1   
    40    20    43 1   
    41    20    44 1   
    42    20    45 1   
    43    21    46 1   
    44    21    47 1   
    45    21    48 1   
    46    22    23 2   
    47    22    24 1   
    48    24    25 1   
    49    24    49 1   
    50    25    26 2   
@<TRIPOS>SUBSTRUCTURE
     1 KBT         1 TEMP              0 ****  ****    0 ROOT
