@<TRIPOS>MOLECULE
KBT
   49    50     1     0     0
SMALL
No Charge or Current Charge


@<TRIPOS>ATOM
      1 C1           3.4690     1.9380    -0.1320 c3         1 KBT      -0.102400
      2 C2           3.8290     3.3790    -0.5550 c3         1 KBT      -0.071400
      3 C3           4.8950     4.0240     0.3520 c3         1 KBT      -0.088100
      4 C4           2.4040     1.2920    -1.0460 c3         1 KBT       0.104000
      5 N5           1.9890    -0.0670    -0.5930 n          1 KBT      -0.301000
      6 C6           0.8270    -0.2750     0.1900 cc         1 KBT       0.017400
      7 C7           0.0310     0.9030     0.6880 c          1 KBT       0.588900
      8 O8           0.5390     1.8530     1.2730 o          1 KBT      -0.482100
      9 C9          -1.4310     0.9520     0.2950 ca         1 KBT      -0.182600
     10 C10         -1.9290     0.1930    -0.7880 ca         1 KBT      -0.031000
     11 C11         -3.2920     0.2500    -1.1340 ca         1 KBT      -0.022000
     12 C12         -3.7900    -0.5370    -2.2280 cg         1 KBT       0.315000
     13 N13         -4.1860    -1.1830    -3.1150 n1         1 KBT      -0.434000
     14 C14         -4.1660     1.0780    -0.4070 ca         1 KBT      -0.044000
     15 C15         -3.6800     1.8570     0.6600 ca         1 KBT      -0.087300
     16 C16         -4.6260     2.7550     1.4440 c3         1 KBT      -0.050800
     17 C17         -2.3180     1.7930     1.0050 ca         1 KBT      -0.038000
     18 C18          0.4780    -1.5770     0.5780 cd         1 KBT      -0.231400
     19 C19         -0.6450    -1.9310     1.5690 c3         1 KBT       0.011500
     20 C20         -1.7510    -2.8310     0.9650 c3         1 KBT      -0.088100
     21 C21         -0.0960    -2.4970     2.8990 c3         1 KBT      -0.088100
     22 C22          1.2900    -2.7280     0.0740 c          1 KBT       0.590200
     23 O23          1.0920    -3.9050     0.3230 o          1 KBT      -0.521000
     24 N24          2.3290    -2.3810    -0.7180 ns         1 KBT      -0.467500
     25 C25          2.7450    -1.1500    -1.0830 c          1 KBT       0.615000
     26 O26          3.7270    -1.0250    -1.7960 o          1 KBT      -0.549000
     27 H1           4.3750     1.3190    -0.1490 hc         1 KBT       0.061200
     28 H1A          3.1130     1.9440     0.9040 hc         1 KBT       0.061200
     29 H2           4.1960     3.3740    -1.5890 hc         1 KBT       0.038200
     30 H2A          2.9250     3.9990    -0.5380 hc         1 KBT       0.038200
     31 H3           4.5430     4.0750     1.3890 hc         1 KBT       0.035700
     32 H3A          5.8260     3.4440     0.3300 hc         1 KBT       0.035700
     33 H3B          5.1180     5.0430     0.0140 hc         1 KBT       0.035700
     34 H4           1.5280     1.9480    -1.1070 h1         1 KBT       0.065200
     35 H4A          2.8000     1.2350    -2.0690 h1         1 KBT       0.065200
     36 H10         -1.2640    -0.4430    -1.3710 ha         1 KBT       0.138000
     37 H14         -5.2200     1.1210    -0.6730 ha         1 KBT       0.131000
     38 H16         -5.0410     2.2250     2.3080 hc         1 KBT       0.051367
     39 H16A        -4.1110     3.6500     1.8150 hc         1 KBT       0.051367
     40 H16B        -5.4640     3.0940     0.8240 hc         1 KBT       0.051367
     41 H17         -1.9510     2.3920     1.8360 ha         1 KBT       0.138000
     42 H19         -1.1640    -1.0190     1.8750 hc         1 KBT       0.037700
     43 H20         -1.4070    -3.8610     0.8220 hc         1 KBT       0.042200
     44 H20A        -2.6200    -2.8630     1.6330 hc         1 KBT       0.042200
     45 H20B        -2.0870    -2.4470    -0.0040 hc         1 KBT       0.042200
     46 H21          0.6630    -1.8240     3.3170 hc         1 KBT       0.042200
     47 H21A        -0.9030    -2.5930     3.6350 hc         1 KBT       0.042200
     48 H21B         0.3560    -3.4860     2.7670 hc         1 KBT       0.042200
     49 HN24         2.8820    -3.1460    -1.0690 hn         1 KBT       0.346500
@<TRIPOS>BOND
     1     1     2 1   
     2     1     4 1   
     3     1    27 1   
     4     1    28 1   
     5     2     3 1   
     6     2    29 1   
     7     2    30 1   
     8     3    31 1   
     9     3    32 1   
    10     3    33 1   
    11     4     5 1   
    12     4    34 1   
    13     4    35 1   
    14     5     6 1   
    15     5    25 1   
    16     6     7 1   
    17     6    18 2   
    18     7     8 2   
    19     7     9 1   
    20     9    10 ar  
    21     9    17 ar  
    22    10    11 ar  
    23    10    36 1   
    24    11    12 1   
    25    11    14 ar  
    26    12    13 3   
    27    14    15 ar  
    28    14    37 1   
    29    15    16 1   
    30    15    17 ar  
    31    16    38 1   
    32    16    39 1   
    33    16    40 1   
    34    17    41 1   
    35    18    19 1   
    36    18    22 1   
    37    19    20 1   
    38    19    21 1   
    39    19    42 1   
    40    20    43 1   
    41    20    44 1   
    42    20    45 1   
    43    21    46 1   
    44    21    47 1   
    45    21    48 1   
    46    22    23 2   
    47    22    24 1   
    48    24    25 1   
    49    24    49 1   
    50    25    26 2   
@<TRIPOS>SUBSTRUCTURE
     1 KBT         1 TEMP              0 ****  ****    0 ROOT
