@<TRIPOS>MOLECULE
KBU
   15    16     1     0     0
SMALL
abcg2


@<TRIPOS>ATOM
      1 N1          21.7350   -21.0260    -1.1720 na         1 KBU      -0.314600
      2 C4          20.1480   -22.5260     0.1020 ca         1 KBU      -0.114000
      3 C5          20.6380   -21.3310    -0.4130 ca         1 KBU      -0.077200
      4 C6          21.7170   -19.6900    -1.3840 cc         1 KBU       0.415700
      5 C7          20.0040   -20.0930    -0.2120 ca         1 KBU       0.067400
      6 C1          18.8310   -20.0560     0.5390 ca         1 KBU       0.177000
      7 C2          18.3240   -21.2270     1.0620 ca         1 KBU      -0.128000
      8 C3          18.9830   -22.4460     0.8420 ca         1 KBU      -0.086000
      9 N2          20.7020   -19.0890    -0.8300 nd         1 KBU      -0.555100
     10 CL1         18.0360   -18.5440     0.7960 cl         1 KBU      -0.176000
     11 H1          22.4320   -21.6700    -1.5130 hn         1 KBU       0.359000
     12 H2          20.6500   -23.4690    -0.0640 ha         1 KBU       0.121000
     13 H3          22.4880   -19.2030    -1.9620 h5         1 KBU       0.063800
     14 H4          17.4140   -21.2100     1.6460 ha         1 KBU       0.129000
     15 H5          18.5600   -23.3470     1.2660 ha         1 KBU       0.117000
@<TRIPOS>BOND
     1     1     3 1   
     2     1     4 1   
     3     1    11 1   
     4     2     3 ar  
     5     2     8 ar  
     6     2    12 1   
     7     3     5 ar  
     8     4     9 2   
     9     4    13 1   
    10     5     6 ar  
    11     5     9 1   
    12     6     7 ar  
    13     6    10 1   
    14     7     8 ar  
    15     7    14 1   
    16     8    15 1   
@<TRIPOS>SUBSTRUCTURE
     1 KBU         1 TEMP              0 ****  ****    0 ROOT
