@<TRIPOS>MOLECULE
KBU
   15    16     1     0     0
SMALL
No Charge or Current Charge


@<TRIPOS>ATOM
      1 N1          21.7370   -21.0450    -1.1700 na         1 KBU      -0.314600
      2 C4          20.1540   -22.5100     0.0970 ca         1 KBU      -0.114000
      3 C5          20.6340   -21.2980    -0.4160 ca         1 KBU      -0.077200
      4 C6          21.7620   -19.6740    -1.4160 cc         1 KBU       0.415700
      5 C7          20.0080   -20.1010    -0.2130 ca         1 KBU       0.067400
      6 C1          18.8200   -20.0420     0.5430 ca         1 KBU       0.177000
      7 C2          18.3020   -21.2410     1.0780 ca         1 KBU      -0.128000
      8 C3          18.9660   -22.4720     0.8560 ca         1 KBU      -0.086000
      9 N2          20.7060   -19.0620    -0.8380 nd         1 KBU      -0.555100
     10 Cl1         17.9860   -18.5130     0.8240 cl         1 KBU      -0.176000
     11 H1          22.4220   -21.7140    -1.4990 hn         1 KBU       0.359000
     12 H2          20.6760   -23.4470    -0.0830 ha         1 KBU       0.121000
     13 H3          22.5430   -19.1990    -1.9990 h5         1 KBU       0.063800
     14 H4          17.3870   -21.2180     1.6640 ha         1 KBU       0.129000
     15 H5          18.5590   -23.3920     1.2730 ha         1 KBU       0.117000
@<TRIPOS>BOND
     1     1     3 1   
     2     1     4 1   
     3     1    11 1   
     4     2     3 ar  
     5     2     8 ar  
     6     2    12 1   
     7     3     5 ar  
     8     4     9 2   
     9     4    13 1   
    10     5     6 ar  
    11     5     9 1   
    12     6     7 ar  
    13     6    10 1   
    14     7     8 ar  
    15     7    14 1   
    16     8    15 1   
@<TRIPOS>SUBSTRUCTURE
     1 KBU         1 TEMP              0 ****  ****    0 ROOT
