@<TRIPOS>MOLECULE
KBV
   37    37     1     0     0
SMALL
No Charge or Current Charge


@<TRIPOS>ATOM
      1 N2          -2.2330     0.8970    -0.8540 n8         1 KBV      -0.962200
      2 C18         -2.4540    -0.2820    -0.0000 c3         1 KBV       0.179500
      3 C20         -1.4260    -1.3840    -0.3700 c3         1 KBV      -0.089100
      4 C21         -3.9140    -0.7810    -0.1070 c3         1 KBV      -0.197400
      5 C22          0.0270    -0.9260    -0.2620 ca         1 KBV      -0.056300
      6 C23          0.5980    -0.6680     0.9960 ca         1 KBV      -0.114500
      7 C24          1.9350    -0.2490     1.0990 ca         1 KBV      -0.109500
      8 C25          2.7410    -0.0770    -0.0510 ca         1 KBV      -0.086300
      9 C26          2.1530    -0.3440    -1.3130 ca         1 KBV      -0.109500
     10 C27          0.8150    -0.7640    -1.4140 ca         1 KBV      -0.114500
     11 C28          4.2140     0.3890     0.1090 c3         1 KBV       0.005300
     12 C29          4.9870    -0.6450     0.9720 c3         1 KBV      -0.080100
     13 C30          4.9590     0.5300    -1.2490 c3         1 KBV      -0.080100
     14 C31          4.2410     1.7720     0.8140 c3         1 KBV      -0.080100
     15 C32         -4.8570     0.1280     0.6990 c          1 KBV       0.731000
     16 O5          -4.9680    -0.0840     1.8990 o          1 KBV      -0.740000
     17 H14         -1.2220     1.0480    -0.9230 hn         1 KBV       0.371000
     18 H22         -2.2590     0.0070     1.0440 h1         1 KBV       0.078700
     19 H24         -1.5770    -2.2430     0.2950 hc         1 KBV       0.042700
     20 H25         -1.6380    -1.7490    -1.3820 hc         1 KBV       0.042700
     21 H26         -4.1850    -0.7980    -1.1710 hc         1 KBV       0.014200
     22 H27         -3.9080    -1.7780     0.3520 hc         1 KBV       0.014200
     23 H28          0.0050    -0.7940     1.8990 ha         1 KBV       0.112000
     24 H29          2.3400    -0.0580     2.0890 ha         1 KBV       0.101000
     25 H30          2.7140    -0.2340    -2.2360 ha         1 KBV       0.101000
     26 H31          0.3910    -0.9620    -2.3960 ha         1 KBV       0.112000
     27 H32          4.9490    -1.6390     0.5110 hc         1 KBV       0.031367
     28 H33          6.0410    -0.3600     1.0760 hc         1 KBV       0.031367
     29 H34          4.5670    -0.7250     1.9810 hc         1 KBV       0.031367
     30 H35          4.4710     1.2700    -1.8930 hc         1 KBV       0.031367
     31 H36          5.9940     0.8600    -1.0940 hc         1 KBV       0.031367
     32 H37          4.9970    -0.4280    -1.7810 hc         1 KBV       0.031367
     33 H38          3.8120     1.7210     1.8210 hc         1 KBV       0.031367
     34 H39          5.2690     2.1420     0.9120 hc         1 KBV       0.031367
     35 H40          3.6680     2.5100     0.2400 hc         1 KBV       0.031367
     36 H2          -2.5080     0.6590    -1.8120 hn         1 KBV       0.371000
     37 OXT         -5.4670     1.0120     0.1140 o          1 KBV      -0.740000
@<TRIPOS>BOND
     1     1     2 1   
     2     1    17 1   
     3     1    36 1   
     4     2     3 1   
     5     2     4 1   
     6     2    18 1   
     7     3     5 1   
     8     3    19 1   
     9     3    20 1   
    10     4    15 1   
    11     4    21 1   
    12     4    22 1   
    13     5     6 ar  
    14     5    10 ar  
    15     6     7 ar  
    16     6    23 1   
    17     7     8 ar  
    18     7    24 1   
    19     8     9 ar  
    20     8    11 1   
    21     9    10 ar  
    22     9    25 1   
    23    10    26 1   
    24    11    12 1   
    25    11    13 1   
    26    11    14 1   
    27    12    27 1   
    28    12    28 1   
    29    12    29 1   
    30    13    30 1   
    31    13    31 1   
    32    13    32 1   
    33    14    33 1   
    34    14    34 1   
    35    14    35 1   
    36    15    16 1   
    37    15    37 1   
@<TRIPOS>SUBSTRUCTURE
     1 KBV         1 TEMP              0 ****  ****    0 ROOT
