@<TRIPOS>MOLECULE
KBV
   37    37     1     0     0
SMALL
abcg2


@<TRIPOS>ATOM
      1 N2          -2.2200     0.8230    -0.9620 n8         1 KBV      -0.962200
      2 C18         -2.3750    -0.2610    -0.0040 c3         1 KBV       0.179500
      3 C20         -1.3960    -1.4350    -0.2170 c3         1 KBV      -0.089100
      4 C21         -3.8130    -0.7560    -0.0410 c3         1 KBV      -0.197400
      5 C22          0.0410    -1.0080    -0.1540 ca         1 KBV      -0.056300
      6 C23          0.6940    -0.8620     1.0700 ca         1 KBV      -0.114500
      7 C24          2.0040    -0.4180     1.1360 ca         1 KBV      -0.109500
      8 C25          2.7300    -0.0950    -0.0150 ca         1 KBV      -0.086300
      9 C26          2.0740    -0.2400    -1.2340 ca         1 KBV      -0.109500
     10 C27          0.7580    -0.6860    -1.3010 ca         1 KBV      -0.114500
     11 C28          4.1710     0.3880     0.1030 c3         1 KBV       0.005300
     12 C29          5.0150    -0.6890     0.8010 c3         1 KBV      -0.080100
     13 C30          4.8010     0.6780    -1.2600 c3         1 KBV      -0.080100
     14 C31          4.2070     1.6750     0.9380 c3         1 KBV      -0.080100
     15 C32         -4.8360     0.3180     0.3640 c          1 KBV       0.731000
     16 O5          -4.6160     0.9190     1.4360 o          1 KBV      -0.740000
     17 H14         -1.2700     1.1740    -0.9440 hn         1 KBV       0.371000
     18 H22         -2.1850     0.1540     0.9910 h1         1 KBV       0.078700
     19 H24         -1.5900    -2.1970     0.5430 hc         1 KBV       0.042700
     20 H25         -1.6060    -1.8950    -1.1880 hc         1 KBV       0.042700
     21 H26         -4.0360    -1.1440    -1.0400 hc         1 KBV       0.014200
     22 H27         -3.9090    -1.6030     0.6480 hc         1 KBV       0.014200
     23 H28          0.1710    -1.1030     1.9880 ha         1 KBV       0.112000
     24 H29          2.4660    -0.3250     2.1120 ha         1 KBV       0.101000
     25 H30          2.5790    -0.0070    -2.1610 ha         1 KBV       0.101000
     26 H31          0.2860    -0.7940    -2.2710 ha         1 KBV       0.112000
     27 H32          5.0310    -1.6140     0.2220 hc         1 KBV       0.031367
     28 H33          6.0460    -0.3470     0.9140 hc         1 KBV       0.031367
     29 H34          4.6360    -0.9220     1.7960 hc         1 KBV       0.031367
     30 H35          4.2770     1.4740    -1.7940 hc         1 KBV       0.031367
     31 H36          5.8350     1.0010    -1.1260 hc         1 KBV       0.031367
     32 H37          4.8160    -0.2060    -1.8990 hc         1 KBV       0.031367
     33 H38          3.8160     1.5200     1.9450 hc         1 KBV       0.031367
     34 H39          5.2330     2.0360     1.0380 hc         1 KBV       0.031367
     35 H40          3.6190     2.4660     0.4690 hc         1 KBV       0.031367
     36 H2          -2.3660     0.4680    -1.9010 hn         1 KBV       0.371000
     37 OXT         -5.8190     0.4880    -0.3870 o          1 KBV      -0.740000
@<TRIPOS>BOND
     1     1     2 1   
     2     1    17 1   
     3     1    36 1   
     4     2     3 1   
     5     2     4 1   
     6     2    18 1   
     7     3     5 1   
     8     3    19 1   
     9     3    20 1   
    10     4    15 1   
    11     4    21 1   
    12     4    22 1   
    13     5     6 ar  
    14     5    10 ar  
    15     6     7 ar  
    16     6    23 1   
    17     7     8 ar  
    18     7    24 1   
    19     8     9 ar  
    20     8    11 1   
    21     9    10 ar  
    22     9    25 1   
    23    10    26 1   
    24    11    12 1   
    25    11    13 1   
    26    11    14 1   
    27    12    27 1   
    28    12    28 1   
    29    12    29 1   
    30    13    30 1   
    31    13    31 1   
    32    13    32 1   
    33    14    33 1   
    34    14    34 1   
    35    14    35 1   
    36    15    16 1   
    37    15    37 1   
@<TRIPOS>SUBSTRUCTURE
     1 KBV         1 TEMP              0 ****  ****    0 ROOT
