@<TRIPOS>MOLECULE
KBY
   88    90     1     0     0
SMALL
No Charge or Current Charge


@<TRIPOS>ATOM
      1 C1          -1.6090    -0.6980     0.4990 ca         1 KBY       0.021000
      2 C2           5.3220    -1.6730     1.2570 ca         1 KBY       0.154100
      3 C3          -0.5530    -0.2010    -0.3000 ca         1 KBY      -0.162600
      4 C4           0.4920    -1.0810    -0.6820 ca         1 KBY      -0.039000
      5 C5           3.2320    -0.9700    -0.4990 ca         1 KBY      -0.197000
      6 C8          -6.3150    -3.5780     1.6350 c3         1 KBY      -0.096600
      7 C9          -5.3480    -5.5640     0.3720 c3         1 KBY      -0.096600
      8 C10          4.3810    -1.6110    -0.9940 ca         1 KBY      -0.031000
      9 C11          5.4250    -1.9640    -0.1210 ca         1 KBY      -0.187000
     10 N1          -3.9260    -3.5290     0.7400 n3         1 KBY      -0.736500
     11 C12         -1.6310    -2.0470     0.9040 ca         1 KBY      -0.306500
     12 C13          0.4590    -2.4270    -0.2710 ca         1 KBY      -0.150000
     13 C14          4.1720    -1.0310     1.7450 ca         1 KBY      -0.187000
     14 C15          3.1290    -0.6780     0.8740 ca         1 KBY      -0.031000
     15 C16          7.5410    -2.6260     1.7600 c3         1 KBY       0.149900
     16 C17         -0.5810     1.2420    -0.7390 c          1 KBY       0.622700
     17 C19         -0.5960    -2.9140     0.5140 ca         1 KBY      -0.001000
     18 O1          -3.8150    -1.5560     2.3770 o          1 KBY      -0.526500
     19 O2          -2.4490    -3.6900     2.7960 o          1 KBY      -0.526500
     20 O4          -0.2720     1.6010    -1.8660 o          1 KBY      -0.584100
     21 S1          -2.9990    -2.6730     1.8920 sy         1 KBY       1.154600
     22 S2           1.9140    -0.5180    -1.6260 ss         1 KBY       0.138000
     23 N2          -1.0730     2.1260     0.1990 ns         1 KBY      -0.490900
     24 C18         -1.2350     3.5670    -0.0130 c3         1 KBY       0.119700
     25 C20         -0.0860     4.3560     0.6600 c3         1 KBY      -0.050100
     26 C21         -2.6290     4.0360     0.4600 c3         1 KBY      -0.177400
     27 C22          1.2970     3.9300     0.1790 ca         1 KBY      -0.072300
     28 C23          1.7550     4.3170    -1.0910 ca         1 KBY      -0.099500
     29 C24          3.0280     3.9270    -1.5380 ca         1 KBY      -0.103000
     30 C25          3.8830     3.1440    -0.7280 ca         1 KBY      -0.067300
     31 C26          3.4070     2.7570     0.5490 ca         1 KBY      -0.103000
     32 C27          2.1310     3.1440     0.9930 ca         1 KBY      -0.099500
     33 C28          5.2890     2.7490    -1.2570 c3         1 KBY       0.004300
     34 C29          6.1010     4.0370    -1.5660 c3         1 KBY      -0.081767
     35 C30          6.1080     1.9050    -0.2410 c3         1 KBY      -0.081767
     36 C31          5.1350     1.9160    -2.5580 c3         1 KBY      -0.081767
     37 C32         -3.7510     3.2060    -0.1680 c          1 KBY       0.584100
     38 O5          -4.0330     3.2730    -1.3560 o          1 KBY      -0.647100
     39 N3          -4.4470     2.4080     0.7130 ns         1 KBY      -0.463900
     40 C33         -5.5770     1.5170     0.3570 c3         1 KBY      -0.061000
     41 C34         -6.5240     1.2350     1.5610 c          1 KBY       0.715000
     42 O6          -6.1760     1.5850     2.6820 o          1 KBY      -0.725000
     43 O7          -7.6070     0.7200     1.3240 o          1 KBY      -0.725000
     44 H1          -2.4350    -0.0440     0.7790 ha         1 KBY       0.163000
     45 H2          -4.8680    -1.8960    -0.2680 h1         1 KBY       0.041700
     46 H3          -3.3310    -2.4190    -0.9930 h1         1 KBY       0.041700
     47 H4          -4.7800    -3.3920    -1.2190 h1         1 KBY       0.041700
     48 H5          -4.6820    -4.8210     2.2350 h1         1 KBY       0.124700
     49 H6          -7.0650    -4.2490     2.0710 hc         1 KBY       0.040867
     50 H7          -6.1200    -2.7860     2.3660 hc         1 KBY       0.040867
     51 H8          -6.7530    -3.1230     0.7390 hc         1 KBY       0.040867
     52 H9          -6.0220    -6.2640     0.8790 hc         1 KBY       0.040867
     53 H10         -5.8340    -5.2410    -0.5550 hc         1 KBY       0.040867
     54 H11         -4.4310    -6.1060     0.1130 hc         1 KBY       0.040867
     55 H12          4.4660    -1.8340    -2.0560 ha         1 KBY       0.127500
     56 H13          6.3010    -2.4570    -0.5310 ha         1 KBY       0.121500
     57 H16          1.2630    -3.1010    -0.5590 ha         1 KBY       0.119000
     58 H17          4.0920    -0.8030     2.8050 ha         1 KBY       0.121500
     59 H18          2.2470    -0.1750     1.2650 ha         1 KBY       0.127500
     60 H19          7.3410    -3.6050     1.3050 h1         1 KBY       0.040033
     61 H20          8.0850    -2.0060     1.0360 h1         1 KBY       0.040033
     62 H21          8.1910    -2.7830     2.6300 h1         1 KBY       0.040033
     63 H23         -0.6060    -3.9600     0.8130 ha         1 KBY       0.127000
     64 H14         -1.2590     1.7510     1.1200 hn         1 KBY       0.315500
     65 H22         -1.1800     3.7660    -1.0930 h1         1 KBY       0.102700
     66 H24         -0.2280     5.4260     0.4620 hc         1 KBY       0.047700
     67 H25         -0.1610     4.2390     1.7490 hc         1 KBY       0.047700
     68 H26         -2.6760     3.9660     1.5540 hc         1 KBY       0.055700
     69 H27         -2.7590     5.0820     0.1600 hc         1 KBY       0.055700
     70 H28          1.1220     4.9210    -1.7370 ha         1 KBY       0.108000
     71 H29          3.3470     4.2460    -2.5270 ha         1 KBY       0.105000
     72 H30          4.0100     2.1540     1.2210 ha         1 KBY       0.105000
     73 H31          1.7910     2.8310     1.9780 ha         1 KBY       0.108000
     74 H32          6.1890     4.6630    -0.6690 hc         1 KBY       0.032922
     75 H33          7.1130     3.7910    -1.9070 hc         1 KBY       0.032922
     76 H34          5.6260     4.6370    -2.3510 hc         1 KBY       0.032922
     77 H35          5.5930     0.9690    -0.0020 hc         1 KBY       0.032922
     78 H36          7.0920     1.6440    -0.6490 hc         1 KBY       0.032922
     79 H37          6.2740     2.4590     0.6920 hc         1 KBY       0.032922
     80 H38          4.6440     2.4920    -3.3510 hc         1 KBY       0.032922
     81 H39          6.1120     1.5960    -2.9380 hc         1 KBY       0.032922
     82 H40          4.5340     1.0190    -2.3730 hc         1 KBY       0.032922
     83 H15         -4.1860     2.4670     1.6920 hn         1 KBY       0.339500
     84 H41         -6.1670     1.9780    -0.4460 h1         1 KBY       0.030700
     85 H42         -5.1760     0.5610    -0.0010 h1         1 KBY       0.030700
     86 C6          -4.2430    -2.7700    -0.4940 c3         1 KBY       0.186100
     87 C7          -5.0250    -4.3650     1.2930 c3         1 KBY       0.212500
     88 O3           6.3160    -1.9890     2.1610 os         1 KBY      -0.341100
@<TRIPOS>BOND
     1     1     3 ar  
     2     1    11 ar  
     3     1    44 1   
     4     2     9 ar  
     5     2    13 ar  
     6     2    88 1   
     7     3     4 ar  
     8     3    16 1   
     9     4    12 ar  
    10     4    22 1   
    11     5     8 ar  
    12     5    14 ar  
    13     5    22 1   
    14     6    49 1   
    15     6    50 1   
    16     6    51 1   
    17     6    87 1   
    18     7    52 1   
    19     7    53 1   
    20     7    54 1   
    21     7    87 1   
    22     8     9 ar  
    23     8    55 1   
    24     9    56 1   
    25    10    21 1   
    26    10    86 1   
    27    10    87 1   
    28    11    17 ar  
    29    11    21 1   
    30    12    17 ar  
    31    12    57 1   
    32    13    14 ar  
    33    13    58 1   
    34    14    59 1   
    35    15    60 1   
    36    15    61 1   
    37    15    62 1   
    38    15    88 1   
    39    16    20 2   
    40    16    23 1   
    41    17    63 1   
    42    18    21 2   
    43    19    21 2   
    44    23    24 1   
    45    23    64 1   
    46    24    25 1   
    47    24    26 1   
    48    24    65 1   
    49    25    27 1   
    50    25    66 1   
    51    25    67 1   
    52    26    37 1   
    53    26    68 1   
    54    26    69 1   
    55    27    28 ar  
    56    27    32 ar  
    57    28    29 ar  
    58    28    70 1   
    59    29    30 ar  
    60    29    71 1   
    61    30    31 ar  
    62    30    33 1   
    63    31    32 ar  
    64    31    72 1   
    65    32    73 1   
    66    33    34 1   
    67    33    35 1   
    68    33    36 1   
    69    34    74 1   
    70    34    75 1   
    71    34    76 1   
    72    35    77 1   
    73    35    78 1   
    74    35    79 1   
    75    36    80 1   
    76    36    81 1   
    77    36    82 1   
    78    37    38 2   
    79    37    39 1   
    80    39    40 1   
    81    39    83 1   
    82    40    41 1   
    83    40    84 1   
    84    40    85 1   
    85    41    42 1   
    86    41    43 1   
    87    45    86 1   
    88    46    86 1   
    89    47    86 1   
    90    48    87 1   
@<TRIPOS>SUBSTRUCTURE
     1 KBY         1 TEMP              0 ****  ****    0 ROOT
