@<TRIPOS>MOLECULE
KBY
   88    90     1     0     0
SMALL
bcc


@<TRIPOS>ATOM
      1 C1          -1.6870    -0.7930     0.9880 ca         1 KBY       0.003000
      2 C2           5.6330    -2.1200     0.7110 ca         1 KBY       0.154100
      3 C3          -0.6510    -0.2100     0.2720 ca         1 KBY      -0.162600
      4 C4           0.5310    -0.9250     0.0360 ca         1 KBY       0.087900
      5 C5           3.2620    -0.9720    -0.2150 ca         1 KBY      -0.070100
      6 C8          -4.2220    -2.6470    -1.0130 c3         1 KBY      -0.096600
      7 C9          -6.0920    -3.6530     0.3470 c3         1 KBY      -0.096600
      8 C10          4.0660    -1.7120    -1.0690 ca         1 KBY      -0.049000
      9 C11          5.2520    -2.2810    -0.6180 ca         1 KBY      -0.205000
     10 N1          -3.8050    -3.6680     1.2320 n3         1 KBY      -0.736500
     11 C12         -1.5560    -2.0890     1.4650 ca         1 KBY      -0.306500
     12 C13          0.6480    -2.2210     0.5330 ca         1 KBY      -0.168000
     13 C14          4.8180    -1.3800     1.5770 ca         1 KBY      -0.205000
     14 C15          3.6560    -0.8030     1.1130 ca         1 KBY      -0.049000
     15 C16          7.6150    -3.3870     0.4140 c3         1 KBY       0.126700
     16 C17         -0.8110     1.1660    -0.2900 c          1 KBY       0.689700
     17 C19         -0.3860    -2.8030     1.2440 ca         1 KBY      -0.019000
     18 O1          -3.7290    -1.7800     2.8730 o          1 KBY      -0.597300
     19 O2          -2.3280    -3.8330     3.2340 o          1 KBY      -0.597300
     20 O4          -0.5350     1.3890    -1.4580 o          1 KBY      -0.584100
     21 S1          -2.9030    -2.8470     2.3330 sy         1 KBY       1.296200
     22 S2           1.8400    -0.1400    -0.8510 ss         1 KBY      -0.115800
     23 N2          -1.2780     2.0740     0.5780 ns         1 KBY      -0.557900
     24 C18         -1.5410     3.4610     0.2560 c3         1 KBY       0.119700
     25 C20         -0.4980     4.3760     0.9060 c3         1 KBY      -0.050100
     26 C21         -2.9650     3.8130     0.6840 c3         1 KBY      -0.177400
     27 C22          0.8920     4.0610     0.4320 ca         1 KBY      -0.072300
     28 C23          1.3370     4.5230    -0.8050 ca         1 KBY      -0.117500
     29 C24          2.5950     4.1980    -1.2800 ca         1 KBY      -0.121000
     30 C25          3.4700     3.3950    -0.5430 ca         1 KBY      -0.067300
     31 C26          3.0230     2.9420     0.6920 ca         1 KBY      -0.121000
     32 C27          1.7570     3.2670     1.1700 ca         1 KBY      -0.117500
     33 C28          4.8440     3.0570    -1.1130 c3         1 KBY       0.004300
     34 C29          5.6150     4.3570    -1.3830 c3         1 KBY      -0.081767
     35 C30          5.6770     2.1980    -0.1640 c3         1 KBY      -0.081767
     36 C31          4.6660     2.2820    -2.4260 c3         1 KBY      -0.081767
     37 C32         -3.9400     2.8750     0.0040 c          1 KBY       0.651100
     38 O5          -4.0150     2.8180    -1.2190 o          1 KBY      -0.647100
     39 N3          -4.6630     2.1020     0.8160 ns         1 KBY      -0.530900
     40 C33         -5.6020     1.1120     0.3570 c3         1 KBY      -0.061000
     41 C34         -6.3560     0.4730     1.5410 c          1 KBY       0.925600
     42 O6          -6.1500     0.9530     2.6710 o          1 KBY      -0.830300
     43 O7          -7.1230    -0.4580     1.2370 o          1 KBY      -0.830300
     44 H1          -2.5930    -0.2270     1.1710 ha         1 KBY       0.181000
     45 H2          -2.4450    -4.6630    -0.0840 h1         1 KBY       0.041700
     46 H3          -2.7870    -5.4940     1.4450 h1         1 KBY       0.041700
     47 H4          -4.0020    -5.4490     0.1860 h1         1 KBY       0.041700
     48 H5          -4.9480    -1.9690     0.8810 h1         1 KBY       0.124700
     49 H6          -4.9100    -1.9860    -1.5400 hc         1 KBY       0.040867
     50 H7          -3.2450    -2.1620    -0.9920 hc         1 KBY       0.040867
     51 H8          -4.1330    -3.5600    -1.6030 hc         1 KBY       0.040867
     52 H9          -6.8210    -3.0400    -0.1810 hc         1 KBY       0.040867
     53 H10         -6.0240    -4.6120    -0.1690 hc         1 KBY       0.040867
     54 H11         -6.4680    -3.8290     1.3550 hc         1 KBY       0.040867
     55 H12          3.7730    -1.8530    -2.1010 ha         1 KBY       0.145500
     56 H13          5.8520    -2.8490    -1.3160 ha         1 KBY       0.139500
     57 H16          1.5560    -2.7870     0.3720 ha         1 KBY       0.137000
     58 H17          5.1180    -1.2500     2.6090 ha         1 KBY       0.139500
     59 H18          3.0480    -0.2130     1.7870 ha         1 KBY       0.145500
     60 H19          7.1190    -4.2750     0.0150 h1         1 KBY       0.040033
     61 H20          8.0000    -2.7920    -0.4170 h1         1 KBY       0.040033
     62 H21          8.4480    -3.7000     1.0380 h1         1 KBY       0.040033
     63 H23         -0.2620    -3.8080     1.6210 ha         1 KBY       0.145000
     64 H14         -1.3710     1.8010     1.5450 hn         1 KBY       0.315500
     65 H22         -1.4680     3.5570    -0.8270 h1         1 KBY       0.102700
     66 H24         -0.7560     5.4100     0.6620 hc         1 KBY       0.047700
     67 H25         -0.5660     4.2830     1.9940 hc         1 KBY       0.047700
     68 H26         -3.0500     3.7690     1.7740 hc         1 KBY       0.055700
     69 H27         -3.1860     4.8400     0.3850 hc         1 KBY       0.055700
     70 H28          0.6870     5.1490    -1.4070 ha         1 KBY       0.126000
     71 H29          2.8980     4.5830    -2.2470 ha         1 KBY       0.123000
     72 H30          3.6520     2.3110     1.3040 ha         1 KBY       0.123000
     73 H31          1.4480     2.8860     2.1370 ha         1 KBY       0.126000
     74 H32          5.7580     4.9230    -0.4600 hc         1 KBY       0.032922
     75 H33          6.6020     4.1380    -1.7950 hc         1 KBY       0.032922
     76 H34          5.0990     5.0050    -2.0930 hc         1 KBY       0.032922
     77 H35          5.1960     1.2460     0.0610 hc         1 KBY       0.032922
     78 H36          6.6400     1.9730    -0.6260 hc         1 KBY       0.032922
     79 H37          5.8790     2.7080     0.7810 hc         1 KBY       0.032922
     80 H38          4.0920     2.8450    -3.1630 hc         1 KBY       0.032922
     81 H39          5.6380     2.0500    -2.8680 hc         1 KBY       0.032922
     82 H40          4.1500     1.3360    -2.2540 hc         1 KBY       0.032922
     83 H15         -4.6100     2.2060     1.8190 hn         1 KBY       0.339500
     84 H41         -6.3330     1.5580    -0.3240 h1         1 KBY       0.030700
     85 H42         -5.0890     0.3320    -0.2150 h1         1 KBY       0.030700
     86 C6          -3.2140    -4.8710     0.6640 c3         1 KBY       0.186100
     87 C7          -4.7590    -2.9210     0.3880 c3         1 KBY       0.212500
     88 O3           6.7530    -2.6320     1.2450 os         1 KBY      -0.317900
@<TRIPOS>BOND
     1     1     3 ar  
     2     1    11 ar  
     3     1    44 1   
     4     2     9 ar  
     5     2    13 ar  
     6     2    88 1   
     7     3     4 ar  
     8     3    16 1   
     9     4    12 ar  
    10     4    22 1   
    11     5     8 ar  
    12     5    14 ar  
    13     5    22 1   
    14     6    49 1   
    15     6    50 1   
    16     6    51 1   
    17     6    87 1   
    18     7    52 1   
    19     7    53 1   
    20     7    54 1   
    21     7    87 1   
    22     8     9 ar  
    23     8    55 1   
    24     9    56 1   
    25    10    21 1   
    26    10    86 1   
    27    10    87 1   
    28    11    17 ar  
    29    11    21 1   
    30    12    17 ar  
    31    12    57 1   
    32    13    14 ar  
    33    13    58 1   
    34    14    59 1   
    35    15    60 1   
    36    15    61 1   
    37    15    62 1   
    38    15    88 1   
    39    16    20 2   
    40    16    23 1   
    41    17    63 1   
    42    18    21 2   
    43    19    21 2   
    44    23    24 1   
    45    23    64 1   
    46    24    25 1   
    47    24    26 1   
    48    24    65 1   
    49    25    27 1   
    50    25    66 1   
    51    25    67 1   
    52    26    37 1   
    53    26    68 1   
    54    26    69 1   
    55    27    28 ar  
    56    27    32 ar  
    57    28    29 ar  
    58    28    70 1   
    59    29    30 ar  
    60    29    71 1   
    61    30    31 ar  
    62    30    33 1   
    63    31    32 ar  
    64    31    72 1   
    65    32    73 1   
    66    33    34 1   
    67    33    35 1   
    68    33    36 1   
    69    34    74 1   
    70    34    75 1   
    71    34    76 1   
    72    35    77 1   
    73    35    78 1   
    74    35    79 1   
    75    36    80 1   
    76    36    81 1   
    77    36    82 1   
    78    37    38 2   
    79    37    39 1   
    80    39    40 1   
    81    39    83 1   
    82    40    41 1   
    83    40    84 1   
    84    40    85 1   
    85    41    42 1   
    86    41    43 1   
    87    45    86 1   
    88    46    86 1   
    89    47    86 1   
    90    48    87 1   
@<TRIPOS>SUBSTRUCTURE
     1 KBY         1 TEMP              0 ****  ****    0 ROOT
