@<TRIPOS>MOLECULE
KBZ
   18    18     1     0     0
SMALL
abcg2


@<TRIPOS>ATOM
      1 C4          -5.3470     2.3660    16.0390 ca         1 KBZ      -0.250500
      2 C5          -6.2110     3.3480    15.5830 ca         1 KBZ      -0.013000
      3 C6          -5.6940     4.4390    14.9040 ca         1 KBZ      -0.096000
      4 N1          -5.6450    -0.2540    15.9080 n8         1 KBZ      -1.014100
      5 N           -3.3620     6.5620    13.4300 n1         1 KBZ      -0.430000
      6 C           -3.7880     5.6530    13.9950 cg         1 KBZ       0.311000
      7 O           -7.4190     1.1940    17.1190 o          1 KBZ      -0.539500
      8 C1          -4.3210     4.5280    14.6950 ca         1 KBZ       0.039000
      9 C2          -3.4570     3.5340    15.1600 ca         1 KBZ      -0.096000
     10 C3          -3.9740     2.4480    15.8380 ca         1 KBZ      -0.013000
     11 O1          -5.1670     0.7600    18.1210 o          1 KBZ      -0.539500
     12 S           -5.9910     0.9780    16.9430 sy         1 KBZ       1.130600
     13 H1          -7.2770     3.2760    15.7480 ha         1 KBZ       0.143500
     14 H2          -6.3540     5.2150    14.5420 ha         1 KBZ       0.133000
     15 H3          -5.5750    -1.1450    16.3910 hn         1 KBZ       0.479500
     16 H4          -6.2910    -0.3180    15.1280 hn         1 KBZ       0.479500
     17 H5          -2.3920     3.6130    14.9910 ha         1 KBZ       0.133000
     18 H6          -3.3080     1.6750    16.1960 ha         1 KBZ       0.143500
@<TRIPOS>BOND
     1     1     2 ar  
     2     1    10 ar  
     3     1    12 1   
     4     2     3 ar  
     5     2    13 1   
     6     3     8 ar  
     7     3    14 1   
     8     4    12 1   
     9     4    15 1   
    10     4    16 1   
    11     5     6 3   
    12     6     8 1   
    13     7    12 2   
    14     8     9 ar  
    15     9    10 ar  
    16     9    17 1   
    17    10    18 1   
    18    11    12 2   
@<TRIPOS>SUBSTRUCTURE
     1 KBZ         1 TEMP              0 ****  ****    0 ROOT
