@<TRIPOS>MOLECULE
KBZ
   18    18     1     0     0
SMALL
No Charge or Current Charge


@<TRIPOS>ATOM
      1 C4          -5.2830     2.3490    16.0400 ca         1 KBZ      -0.250500
      2 C5          -6.1680     3.2730    15.4470 ca         1 KBZ      -0.013000
      3 C6          -5.6610     4.3960    14.7690 ca         1 KBZ      -0.096000
      4 N1          -6.0270    -0.2150    15.7320 n8         1 KBZ      -1.014100
      5 N           -3.3310     6.6790    13.4120 n1         1 KBZ      -0.430000
      6 C           -3.7560     5.7520    13.9810 cg         1 KBZ       0.311000
      7 O           -7.3200     1.1180    17.3000 o          1 KBZ      -0.539500
      8 C1          -4.2710     4.6030    14.6760 ca         1 KBZ       0.039000
      9 C2          -3.3890     3.6770    15.2660 ca         1 KBZ      -0.096000
     10 C3          -3.8910     2.5530    15.9460 ca         1 KBZ      -0.013000
     11 O1          -4.9310     0.3620    17.8230 o          1 KBZ      -0.539500
     12 S           -5.9280     0.9110    16.9070 sy         1 KBZ       1.130600
     13 H1          -7.2450     3.1270    15.5070 ha         1 KBZ       0.143500
     14 H2          -6.3520     5.1040    14.3150 ha         1 KBZ       0.133000
     15 H3          -5.5180    -0.9790    16.1700 hn         1 KBZ       0.479500
     16 H4          -6.9930    -0.5120    15.8470 hn         1 KBZ       0.479500
     17 H5          -2.3130     3.8270    15.2000 ha         1 KBZ       0.133000
     18 H6          -3.1950     1.8460    16.3950 ha         1 KBZ       0.143500
@<TRIPOS>BOND
     1     1     2 ar  
     2     1    10 ar  
     3     1    12 1   
     4     2     3 ar  
     5     2    13 1   
     6     3     8 ar  
     7     3    14 1   
     8     4    12 1   
     9     4    15 1   
    10     4    16 1   
    11     5     6 3   
    12     6     8 1   
    13     7    12 2   
    14     8     9 ar  
    15     9    10 ar  
    16     9    17 1   
    17    10    18 1   
    18    11    12 2   
@<TRIPOS>SUBSTRUCTURE
     1 KBZ         1 TEMP              0 ****  ****    0 ROOT
