@<TRIPOS>MOLECULE
KC0
   20    21     1     0     0
SMALL
abcg2


@<TRIPOS>ATOM
      1 C1        -107.1860  -176.5290   313.6400 ca         1 KC0      -0.068000
      2 C2        -108.4680  -176.6190   313.1360 ca         1 KC0      -0.124000
      3 N1        -106.1160  -174.3710   307.8480 n1         1 KC0      -0.461000
      4 C3        -108.7890  -175.8390   312.0280 ca         1 KC0      -0.040200
      5 C7        -106.9230  -173.9050   308.5220 c1         1 KC0       0.299900
      6 C5        -108.5160  -174.3400   310.3320 cc         1 KC0      -0.152400
      7 C4        -109.7890  -174.8340   310.3150 cd         1 KC0      -0.139100
      8 N         -109.9540  -175.7280   311.3290 na         1 KC0      -0.214700
      9 C8        -107.8500  -174.9740   311.4270 ca         1 KC0      -0.091800
     10 C9        -106.5540  -174.8910   311.9460 ca         1 KC0      -0.029000
     11 C         -106.2500  -175.6720   313.0410 ca         1 KC0      -0.041900
     12 BR        -104.5020  -175.6000   313.7700 br         1 KC0      -0.104100
     13 H1        -106.9100  -177.1240   314.4990 ha         1 KC0       0.129000
     14 H2        -109.1940  -177.2770   313.5950 ha         1 KC0       0.119000
     15 H3        -107.4850  -172.4940   309.9310 hc         1 KC0       0.072700
     16 H4        -108.7230  -172.9010   308.7600 hc         1 KC0       0.072700
     17 H5        -110.6010  -174.6050   309.6420 h4         1 KC0       0.217000
     18 H6        -110.8080  -176.2220   311.5300 hn         1 KC0       0.356000
     19 H7        -105.8180  -174.2330   311.4990 ha         1 KC0       0.134000
     20 C6        -107.9430  -173.3280   309.3930 c3         1 KC0       0.065900
@<TRIPOS>BOND
     1     1     2 ar  
     2     1    11 ar  
     3     1    13 1   
     4     2     4 ar  
     5     2    14 1   
     6     3     5 3   
     7     4     8 1   
     8     4     9 ar  
     9     5    20 1   
    10     6     7 2   
    11     6     9 1   
    12     6    20 1   
    13     7     8 1   
    14     7    17 1   
    15     8    18 1   
    16     9    10 ar  
    17    10    11 ar  
    18    10    19 1   
    19    11    12 1   
    20    15    20 1   
    21    16    20 1   
@<TRIPOS>SUBSTRUCTURE
     1 KC0         1 TEMP              0 ****  ****    0 ROOT
