@<TRIPOS>MOLECULE
KC0
   20    21     1     0     0
SMALL
No Charge or Current Charge


@<TRIPOS>ATOM
      1 C1         107.1810  -176.5230   313.6730 ca         1 KC0      -0.068000
      2 C2        -108.4820  -176.6210   313.1360 ca         1 KC0      -0.124000
      3 N1         106.2110  -174.3430   307.6340 n1         1 KC0      -0.461000
      4 C3        -108.7970  -175.8370   312.0170 ca         1 KC0      -0.040200
      5 C7         106.9550  -173.9110   308.4210 c1         1 KC0       0.299900
      6 C5        -108.5060  -174.3480   310.3350 cc         1 KC0      -0.152400
      7 C4         109.8060  -174.8450   310.2870 cd         1 KC0      -0.139100
      8 N         -109.9980  -175.7780   311.3350 na         1 KC0      -0.214700
      9 C8         107.8780  -174.9970   311.4520 ca         1 KC0      -0.091800
     10 C9        -106.5760  -174.8750   311.9590 ca         1 KC0      -0.029000
     11 C          106.2330  -175.6530   313.0850 ca         1 KC0      -0.041900
     12 Br        -104.4720  -175.5290   313.8210 br         1 KC0      -0.104100
     13 H1         106.9060  -177.1190   314.5410 ha         1 KC0       0.129000
     14 H2        -109.2190  -177.2870   313.5790 ha         1 KC0       0.119000
     15 H3         107.3270  -172.5890   309.9950 hc         1 KC0       0.072700
     16 H4        -108.6560  -172.7880   308.8700 hc         1 KC0       0.072700
     17 H5         110.6030  -174.6050   309.5870 h4         1 KC0       0.217000
     18 H6        -110.8450  -176.2990   311.5450 hn         1 KC0       0.356000
     19 H7         105.8530  -174.2050   311.5010 ha         1 KC0       0.134000
     20 C6        -107.8750  -173.3350   309.4100 c3         1 KC0       0.065900
@<TRIPOS>BOND
     1     1     2 ar  
     2     1    11 ar  
     3     1    13 1   
     4     2     4 ar  
     5     2    14 1   
     6     3     5 3   
     7     4     8 1   
     8     4     9 ar  
     9     5    20 1   
    10     6     7 2   
    11     6     9 1   
    12     6    20 1   
    13     7     8 1   
    14     7    17 1   
    15     8    18 1   
    16     9    10 ar  
    17    10    11 ar  
    18    10    19 1   
    19    11    12 1   
    20    15    20 1   
    21    16    20 1   
@<TRIPOS>SUBSTRUCTURE
     1 KC0         1 TEMP              0 ****  ****    0 ROOT
