@<TRIPOS>MOLECULE
KC3
   34    36     1     0     0
SMALL
No Charge or Current Charge


@<TRIPOS>ATOM
      1 C4         -24.2370    -8.1600    75.6080 c6         1 KC3      -0.095900
      2 C5         -24.6840    -6.7120    75.9370 c6         1 KC3      -0.060700
      3 C6         -19.6660    -7.0120    79.9100 cc         1 KC3      -0.176000
      4 C11        -25.8220    -6.2180    75.0060 c3         1 KC3      -0.086100
      5 C7         -19.5330    -8.0550    78.9590 cc         1 KC3       0.000000
      6 C8         -20.6680    -8.4150    78.2750 cd         1 KC3      -0.183000
      7 C9         -21.9020    -7.7150    78.5670 cd         1 KC3       0.595900
      8 C10        -20.7210    -5.4520    81.0760 cc         1 KC3       0.356800
      9 C12        -21.7950    -4.5470    81.6120 c3         1 KC3      -0.092400
     10 N1         -23.0660    -8.0650    77.8650 nh         1 KC3      -0.785300
     11 N2         -22.0570    -6.7290    79.4610 nc         1 KC3      -0.578800
     12 C3         -22.9930    -8.5560    76.4530 c6         1 KC3       0.226300
     13 N3         -20.8720    -6.4190    80.1120 na         1 KC3       0.155000
     14 C1         -25.0650    -6.5870    77.4450 c6         1 KC3      -0.095900
     15 C2         -24.4370    -7.6970    78.3330 c6         1 KC3       0.226300
     16 N4         -18.7820    -6.4480    80.7120 nd         1 KC3      -0.070000
     17 N5         -19.4430    -5.4670    81.4460 nd         1 KC3      -0.379700
     18 H1         -25.0600    -8.8600    75.8050 hc         1 KC3       0.051450
     19 H2         -23.9970    -8.2580    74.5400 hc         1 KC3       0.051450
     20 H3         -23.8280    -6.0480    75.7460 hc         1 KC3       0.051700
     21 H4         -26.1000    -5.1830    75.2380 hc         1 KC3       0.036033
     22 H5         -25.5150    -6.2500    73.9540 hc         1 KC3       0.036033
     23 H6         -26.7210    -6.8380    75.1100 hc         1 KC3       0.036033
     24 H8         -20.6320    -9.2120    77.5450 ha         1 KC3       0.133000
     25 H9         -21.3950    -3.8670    82.3720 hc         1 KC3       0.059367
     26 H10        -22.2280    -3.9430    80.8070 hc         1 KC3       0.059367
     27 H11        -22.6000    -5.1340    82.0700 hc         1 KC3       0.059367
     28 H12        -22.8720    -9.6490    76.4320 h1         1 KC3       0.054450
     29 H13        -22.1070    -8.1250    75.9640 h1         1 KC3       0.054450
     30 H14        -24.7440    -5.6040    77.8130 hc         1 KC3       0.051450
     31 H15        -26.1550    -6.6170    77.5740 hc         1 KC3       0.051450
     32 H16        -24.4600    -7.3860    79.3880 h1         1 KC3       0.054450
     33 H17        -25.0790    -8.5890    78.2750 h1         1 KC3       0.054450
     34 H7         -18.5740    -8.5380    78.7940 ha         1 KC3       0.149000
@<TRIPOS>BOND
     1     1     2 1   
     2     1    12 1   
     3     1    18 1   
     4     1    19 1   
     5     2     4 1   
     6     2    14 1   
     7     2    20 1   
     8     3     5 1   
     9     3    13 1   
    10     3    16 2   
    11     4    21 1   
    12     4    22 1   
    13     4    23 1   
    14     5     6 2   
    15     5    34 1   
    16     6     7 1   
    17     6    24 1   
    18     7    10 1   
    19     7    11 2   
    20     8     9 1   
    21     8    13 1   
    22     8    17 2   
    23     9    25 1   
    24     9    26 1   
    25     9    27 1   
    26    10    12 1   
    27    10    15 1   
    28    11    13 1   
    29    12    28 1   
    30    12    29 1   
    31    14    15 1   
    32    14    30 1   
    33    14    31 1   
    34    15    32 1   
    35    15    33 1   
    36    16    17 1   
@<TRIPOS>SUBSTRUCTURE
     1 KC3         1 TEMP              0 ****  ****    0 ROOT
