@<TRIPOS>MOLECULE
KC3
   34    36     1     0     0
SMALL
bcc


@<TRIPOS>ATOM
      1 C4         -24.3080    -8.2410    75.7590 c6         1 KC3      -0.095900
      2 C5         -24.5590    -6.7520    75.9770 c6         1 KC3      -0.060700
      3 C6         -19.6860    -6.8630    79.7740 cc         1 KC3      -0.125300
      4 C11        -25.5860    -6.1920    75.0050 c3         1 KC3      -0.086100
      5 C7         -19.5750    -7.8370    78.7520 cc         1 KC3      -0.018000
      6 C8         -20.7080    -8.2230    78.1290 cd         1 KC3      -0.266300
      7 C9         -21.9830    -7.6400    78.5030 cd         1 KC3       0.661200
      8 C10        -20.7830    -5.5050    81.0530 cc         1 KC3       0.356800
      9 C12        -21.8980    -4.7510    81.6630 c3         1 KC3      -0.092400
     10 N1         -23.1150    -8.0610    77.8980 nh         1 KC3      -0.785300
     11 N2         -22.0850    -6.7330    79.4450 nc         1 KC3      -0.578800
     12 C3         -23.1100    -8.7090    76.5890 c6         1 KC3       0.226300
     13 N3         -20.9370    -6.3990    80.0490 na         1 KC3       0.104300
     14 C1         -24.9720    -6.5150    77.4400 c6         1 KC3      -0.095900
     15 C2         -24.4200    -7.6150    78.3480 c6         1 KC3       0.226300
     16 N4         -18.8160    -6.2830    80.5710 nd         1 KC3      -0.070000
     17 N5         -19.5080    -5.4420    81.3600 nd         1 KC3      -0.379700
     18 H1         -25.2080    -8.8100    76.0100 hc         1 KC3       0.051450
     19 H2         -24.0960    -8.4520    74.7090 hc         1 KC3       0.051450
     20 H3         -23.6090    -6.2340    75.8000 hc         1 KC3       0.051700
     21 H4         -25.7680    -5.1320    75.1900 hc         1 KC3       0.036033
     22 H5         -25.2550    -6.2960    73.9700 hc         1 KC3       0.036033
     23 H6         -26.5410    -6.7120    75.1040 hc         1 KC3       0.036033
     24 H8         -20.6660    -8.9930    77.3740 ha         1 KC3       0.151000
     25 H9         -21.5110    -4.0910    82.4350 hc         1 KC3       0.059367
     26 H10        -22.4210    -4.1460    80.9210 hc         1 KC3       0.059367
     27 H11        -22.6300    -5.4210    82.1160 hc         1 KC3       0.059367
     28 H12        -23.1100    -9.7990    76.6890 h1         1 KC3       0.054450
     29 H13        -22.2030    -8.4300    76.0520 h1         1 KC3       0.054450
     30 H14        -24.6250    -5.5340    77.7720 hc         1 KC3       0.051450
     31 H15        -26.0620    -6.5110    77.5290 hc         1 KC3       0.051450
     32 H16        -24.3600    -7.2880    79.3830 h1         1 KC3       0.054450
     33 H17        -25.0840    -8.4820    78.3310 h1         1 KC3       0.054450
     34 H7         -18.6110    -8.2620    78.5070 ha         1 KC3       0.167000
@<TRIPOS>BOND
     1     1     2 1   
     2     1    12 1   
     3     1    18 1   
     4     1    19 1   
     5     2     4 1   
     6     2    14 1   
     7     2    20 1   
     8     3     5 1   
     9     3    13 1   
    10     3    16 2   
    11     4    21 1   
    12     4    22 1   
    13     4    23 1   
    14     5     6 2   
    15     5    34 1   
    16     6     7 1   
    17     6    24 1   
    18     7    10 1   
    19     7    11 2   
    20     8     9 1   
    21     8    13 1   
    22     8    17 2   
    23     9    25 1   
    24     9    26 1   
    25     9    27 1   
    26    10    12 1   
    27    10    15 1   
    28    11    13 1   
    29    12    28 1   
    30    12    29 1   
    31    14    15 1   
    32    14    30 1   
    33    14    31 1   
    34    15    32 1   
    35    15    33 1   
    36    16    17 1   
@<TRIPOS>SUBSTRUCTURE
     1 KC3         1 TEMP              0 ****  ****    0 ROOT
