@<TRIPOS>MOLECULE
KC4
   56    58     1     0     0
SMALL
No Charge or Current Charge


@<TRIPOS>ATOM
      1 C10         -3.3160    -1.6920    -0.0030 c6         1 KC4       0.176300
      2 C13         -0.3040    -1.6750     0.1590 c6         1 KC4       0.119700
      3 C15          2.1190    -0.9780    -0.0010 c          1 KC4       0.661100
      4 C20          6.7560    -0.4670    -1.7860 ca         1 KC4      -0.068000
      5 C21          7.2270     0.3240    -0.7260 ca         1 KC4       0.054100
      6 C28          5.0140     0.1970     0.3090 ca         1 KC4      -0.149000
      7 C01        -11.2650     2.5410     0.3750 c3         1 KC4       0.095300
      8 N02        -10.0640     1.7110     0.4910 ns         1 KC4      -0.504900
      9 O04         -9.0060     2.5160    -1.3430 o          1 KC4      -0.609100
     10 C05         -7.8440     0.8190    -0.1030 ca         1 KC4      -0.191600
     11 C06         -6.7270     0.8210    -0.9690 ca         1 KC4      -0.032500
     12 C07         -5.6340    -0.0320    -0.7400 ca         1 KC4      -0.188000
     13 C08         -5.6340    -0.9030     0.3690 ca         1 KC4       0.173100
     14 O09         -4.5990    -1.7760     0.6530 os         1 KC4      -0.350100
     15 C11         -2.5060    -2.9750     0.3080 c6         1 KC4      -0.088900
     16 C12         -1.0910    -2.9200    -0.3240 c6         1 KC4      -0.091900
     17 N14          1.0110    -1.6300    -0.4890 ns         1 KC4      -0.516900
     18 O16          2.1040    -0.3760     1.0630 o          1 KC4      -0.615100
     19 N17          3.2130    -1.0960    -0.8430 ns         1 KC4      -0.166000
     20 C18          4.5420    -0.5990    -0.7580 ca         1 KC4       0.013000
     21 C19          5.4260    -0.9240    -1.8020 ca         1 KC4      -0.149000
     22 F24          8.5800     2.7560     0.3650 f          1 KC4      -0.110667
     23 F25          9.1870     0.9500     1.4420 f          1 KC4      -0.110667
     24 F26         10.4720     1.7910    -0.0940 f          1 KC4      -0.110667
     25 C27          6.3450     0.6560     0.3270 ca         1 KC4      -0.068000
     26 C29         -1.1130    -0.3910    -0.1610 c6         1 KC4      -0.091900
     27 C30         -2.5280    -0.4380     0.4690 c6         1 KC4      -0.088900
     28 C31         -6.7430    -0.9160     1.2260 ca         1 KC4      -0.188000
     29 C32         -7.8390    -0.0660     1.0010 ca         1 KC4      -0.032500
     30 H1          -3.4690    -1.6530    -1.0910 h1         1 KC4       0.044700
     31 H2          -0.1580    -1.7480     1.2480 h1         1 KC4       0.086700
     32 H3           7.4270    -0.7280    -2.6010 ha         1 KC4       0.134500
     33 H4           4.3680     0.4750     1.1350 ha         1 KC4       0.134500
     34 H5         -10.9880     3.6020     0.4230 h1         1 KC4       0.040033
     35 H6         -11.7650     2.3360    -0.5810 h1         1 KC4       0.040033
     36 H7         -11.9520     2.3090     1.1990 h1         1 KC4       0.040033
     37 H8         -10.0000     1.0600     1.2630 hn         1 KC4       0.314500
     38 H9          -6.7020     1.4860    -1.8310 ha         1 KC4       0.123000
     39 H10         -4.8030    -0.0010    -1.4380 ha         1 KC4       0.125000
     40 H11         -2.4210    -3.1060     1.3960 hc         1 KC4       0.061450
     41 H12         -3.0460    -3.8530    -0.0710 hc         1 KC4       0.061450
     42 H13         -1.1790    -2.9080    -1.4190 hc         1 KC4       0.050450
     43 H14         -0.5380    -3.8320    -0.0650 hc         1 KC4       0.050450
     44 H15          1.1190    -2.1050    -1.3770 hn         1 KC4       0.304500
     45 H16          3.0360    -1.6360    -1.6780 hn         1 KC4       0.147000
     46 H17          5.0840    -1.5360    -2.6350 ha         1 KC4       0.134500
     47 H18          6.6660     1.2650     1.1660 ha         1 KC4       0.134500
     48 H19         -0.5750     0.4910     0.2130 hc         1 KC4       0.050450
     49 H20         -1.1980    -0.2640    -1.2500 hc         1 KC4       0.050450
     50 H21         -3.0720     0.4790     0.2090 hc         1 KC4       0.061450
     51 H22         -2.4440    -0.4470     1.5650 hc         1 KC4       0.061450
     52 H23         -6.7520    -1.5920     2.0770 ha         1 KC4       0.125000
     53 H24         -8.6740    -0.1110     1.6960 ha         1 KC4       0.123000
     54 O22          8.5480     0.7370    -0.7780 os         1 KC4      -0.397100
     55 C03         -9.0020     1.7540    -0.3850 c          1 KC4       0.615700
     56 C23          9.1820     1.5510     0.2300 c3         1 KC4       0.512000
@<TRIPOS>BOND
     1     1    14 1   
     2     1    15 1   
     3     1    27 1   
     4     1    30 1   
     5     2    16 1   
     6     2    17 1   
     7     2    26 1   
     8     2    31 1   
     9     3    17 1   
    10     3    18 2   
    11     3    19 1   
    12     4     5 ar  
    13     4    21 ar  
    14     4    32 1   
    15     5    25 ar  
    16     5    54 1   
    17     6    20 ar  
    18     6    25 ar  
    19     6    33 1   
    20     7     8 1   
    21     7    34 1   
    22     7    35 1   
    23     7    36 1   
    24     8    37 1   
    25     8    55 1   
    26     9    55 2   
    27    10    11 ar  
    28    10    29 ar  
    29    10    55 1   
    30    11    12 ar  
    31    11    38 1   
    32    12    13 ar  
    33    12    39 1   
    34    13    14 1   
    35    13    28 ar  
    36    15    16 1   
    37    15    40 1   
    38    15    41 1   
    39    16    42 1   
    40    16    43 1   
    41    17    44 1   
    42    19    20 1   
    43    19    45 1   
    44    20    21 ar  
    45    21    46 1   
    46    22    56 1   
    47    23    56 1   
    48    24    56 1   
    49    25    47 1   
    50    26    27 1   
    51    26    48 1   
    52    26    49 1   
    53    27    50 1   
    54    27    51 1   
    55    28    29 ar  
    56    28    52 1   
    57    29    53 1   
    58    54    56 1   
@<TRIPOS>SUBSTRUCTURE
     1 KC4         1 TEMP              0 ****  ****    0 ROOT
