@<TRIPOS>MOLECULE
KC4
   56    58     1     0     0
SMALL
abcg2


@<TRIPOS>ATOM
      1 C10         -3.2110    -1.4020     0.2140 c6         1 KC4       0.176300
      2 C13         -0.2660    -1.4590     0.1880 c6         1 KC4       0.119700
      3 C15          2.1050    -0.8740    -0.0920 c          1 KC4       0.661100
      4 C20          6.7220    -0.4330    -1.6340 ca         1 KC4      -0.068000
      5 C21          7.0290     0.5850    -0.7480 ca         1 KC4       0.054100
      6 C28          4.7610     0.6170     0.0410 ca         1 KC4      -0.149000
      7 C01        -11.3860     1.9620    -0.0870 c3         1 KC4       0.095300
      8 N02        -10.1670     1.2350     0.1740 ns         1 KC4      -0.504900
      9 O04         -8.8870     2.5960    -1.0720 o          1 KC4      -0.609100
     10 C05         -7.7990     0.7880     0.0100 ca         1 KC4      -0.191600
     11 C06         -6.6660     0.8840    -0.7900 ca         1 KC4      -0.032500
     12 C07         -5.5200     0.1530    -0.5200 ca         1 KC4      -0.188000
     13 C08         -5.4850    -0.6990     0.5840 ca         1 KC4       0.173100
     14 O09         -4.4420    -1.4660     0.9330 os         1 KC4      -0.350100
     15 C11         -2.4480    -2.6760     0.5380 c6         1 KC4      -0.088900
     16 C12         -1.0920    -2.6930    -0.1600 c6         1 KC4      -0.091900
     17 N14          0.9930    -1.5100    -0.5270 ns         1 KC4      -0.516900
     18 O16          2.1760    -0.3000     0.9840 o          1 KC4      -0.615100
     19 N17          3.1590    -0.9580    -0.9760 ns         1 KC4      -0.166000
     20 C18          4.4330    -0.4210    -0.8360 ca         1 KC4       0.013000
     21 C19          5.4330    -0.9300    -1.6720 ca         1 KC4      -0.149000
     22 F24          8.8450     0.7400     1.3820 f          1 KC4      -0.110667
     23 F25          9.4120    -0.6970    -0.1010 f          1 KC4      -0.110667
     24 F26         10.3510     1.2440    -0.0750 f          1 KC4      -0.110667
     25 C27          6.0560     1.1110     0.0820 ca         1 KC4      -0.068000
     26 C29         -1.0490    -0.1810    -0.1130 c6         1 KC4      -0.091900
     27 C30         -2.3990    -0.1730     0.6000 c6         1 KC4      -0.088900
     28 C31         -6.6120    -0.7880     1.4060 ca         1 KC4      -0.188000
     29 C32         -7.7480    -0.0590     1.1200 ca         1 KC4      -0.032500
     30 H1          -3.4140    -1.3880    -0.8650 h1         1 KC4       0.044700
     31 H2          -0.0420    -1.4860     1.2570 h1         1 KC4       0.086700
     32 H3           7.4730    -0.8340    -2.3010 ha         1 KC4       0.134500
     33 H4           4.0210     1.0520     0.6900 ha         1 KC4       0.134500
     34 H5         -11.2990     3.0050     0.2170 h1         1 KC4       0.040033
     35 H6         -11.6620     1.9360    -1.1430 h1         1 KC4       0.040033
     36 H7         -12.1870     1.5050     0.4870 h1         1 KC4       0.040033
     37 H8         -10.2400     0.3640     0.6710 hn         1 KC4       0.314500
     38 H9          -6.6700     1.5420    -1.6490 ha         1 KC4       0.123000
     39 H10         -4.6710     0.2640    -1.1810 ha         1 KC4       0.125000
     40 H11         -2.3080    -2.7490     1.6210 hc         1 KC4       0.061450
     41 H12         -3.0300    -3.5470     0.2290 hc         1 KC4       0.061450
     42 H13         -1.2400    -2.7410    -1.2450 hc         1 KC4       0.050450
     43 H14         -0.5480    -3.5960     0.1240 hc         1 KC4       0.050450
     44 H15          0.9530    -1.8200    -1.4860 hn         1 KC4       0.304500
     45 H16          3.0460    -1.5800    -1.7620 hn         1 KC4       0.147000
     46 H17          5.1990    -1.7290    -2.3650 ha         1 KC4       0.134500
     47 H18          6.2880     1.9280     0.7530 ha         1 KC4       0.134500
     48 H19         -0.4680     0.6900     0.1950 hc         1 KC4       0.050450
     49 H20         -1.1990    -0.0970    -1.1940 hc         1 KC4       0.050450
     50 H21         -2.9330     0.7480     0.3580 hc         1 KC4       0.061450
     51 H22         -2.2470    -0.1760     1.6840 hc         1 KC4       0.061450
     52 H23         -6.5870    -1.4340     2.2750 ha         1 KC4       0.125000
     53 H24         -8.5880    -0.1440     1.7980 ha         1 KC4       0.123000
     54 O22          8.3120     1.1280    -0.7440 os         1 KC4      -0.397100
     55 C03         -8.9890     1.6150    -0.3420 c          1 KC4       0.615700
     56 C23          9.2040     0.6060     0.1030 c3         1 KC4       0.512000
@<TRIPOS>BOND
     1     1    14 1   
     2     1    15 1   
     3     1    27 1   
     4     1    30 1   
     5     2    16 1   
     6     2    17 1   
     7     2    26 1   
     8     2    31 1   
     9     3    17 1   
    10     3    18 2   
    11     3    19 1   
    12     4     5 ar  
    13     4    21 ar  
    14     4    32 1   
    15     5    25 ar  
    16     5    54 1   
    17     6    20 ar  
    18     6    25 ar  
    19     6    33 1   
    20     7     8 1   
    21     7    34 1   
    22     7    35 1   
    23     7    36 1   
    24     8    37 1   
    25     8    55 1   
    26     9    55 2   
    27    10    11 ar  
    28    10    29 ar  
    29    10    55 1   
    30    11    12 ar  
    31    11    38 1   
    32    12    13 ar  
    33    12    39 1   
    34    13    14 1   
    35    13    28 ar  
    36    15    16 1   
    37    15    40 1   
    38    15    41 1   
    39    16    42 1   
    40    16    43 1   
    41    17    44 1   
    42    19    20 1   
    43    19    45 1   
    44    20    21 ar  
    45    21    46 1   
    46    22    56 1   
    47    23    56 1   
    48    24    56 1   
    49    25    47 1   
    50    26    27 1   
    51    26    48 1   
    52    26    49 1   
    53    27    50 1   
    54    27    51 1   
    55    28    29 ar  
    56    28    52 1   
    57    29    53 1   
    58    54    56 1   
@<TRIPOS>SUBSTRUCTURE
     1 KC4         1 TEMP              0 ****  ****    0 ROOT
