@<TRIPOS>MOLECULE
KC5
   42    45     1     0     0
SMALL
bcc


@<TRIPOS>ATOM
      1 CAA          7.9640     3.1280     0.0810 c3         1 KC5       0.123700
      2 CAF          1.8840    -0.6250    -0.0360 c2         1 KC5       0.214000
      3 CAG         -0.5010    -3.5580    -0.6050 c6         1 KC5      -0.172400
      4 CAH          5.5020    -0.9630     0.3230 ca         1 KC5      -0.123000
      5 CAI          4.3190     1.0600    -0.1750 ca         1 KC5      -0.123000
      6 CAJ          6.6870    -0.2590     0.3930 ca         1 KC5      -0.161000
      7 CAK          5.5080     1.7740    -0.0950 ca         1 KC5      -0.161000
      8 CAL         -1.7540    -2.9840     0.0600 c6         1 KC5       0.013800
      9 CAM         -2.6990     1.9600    -0.1040 ca         1 KC5      -0.066000
     10 CAQ          0.7990    -2.8490    -0.2860 c          1 KC5       0.613300
     11 CAR         -4.0820     1.9440    -0.0110 ca         1 KC5      -0.060600
     12 CAS          4.3000    -0.3110     0.0440 ca         1 KC5       0.102600
     13 CAT         -4.8230     0.7560     0.0880 ca         1 KC5       0.149100
     14 CAU          6.7040     1.1220     0.1900 ca         1 KC5       0.129100
     15 CAV         -4.1420    -0.4580     0.0850 ca         1 KC5       0.016400
     16 CAW          0.7520    -1.4020    -0.1470 ce         1 KC5      -0.337200
     17 CAX         -2.0760     0.7340    -0.0980 ca         1 KC5       0.025100
     18 CAY         -1.7390    -1.4950    -0.0420 cd         1 KC5      -0.166400
     19 CAZ         -0.5630    -0.8210    -0.1310 cc         1 KC5       0.145100
     20 CBA         -2.7550    -0.4880    -0.0120 ca         1 KC5      -0.029800
     21 OAC         -6.1580     0.7290     0.1850 oh         1 KC5      -0.473100
     22 OAO          7.9020     1.7300     0.2830 os         1 KC5      -0.313900
     23 OAP         -0.7400     0.5220    -0.1730 os         1 KC5      -0.175200
     24 CL1         -4.9490     3.4450    -0.0140 cl         1 KC5      -0.105400
     25 CL2         -5.0490    -1.9190     0.2160 cl         1 KC5      -0.075400
     26 H1           7.6370     3.4100    -0.9230 h1         1 KC5       0.043033
     27 H2           7.3640     3.6740     0.8140 h1         1 KC5       0.043033
     28 H3           9.0060     3.4120     0.2030 h1         1 KC5       0.043033
     29 H4           1.7740     0.4490     0.0460 h4         1 KC5       0.151000
     30 H5          -0.3910    -4.6170    -0.3730 hc         1 KC5       0.070700
     31 H6          -0.6170    -3.4830    -1.6930 hc         1 KC5       0.070700
     32 H7           5.5100    -2.0330     0.4900 ha         1 KC5       0.141000
     33 H8           3.4170     1.6050    -0.4230 ha         1 KC5       0.141000
     34 H9           7.6100    -0.7810     0.6120 ha         1 KC5       0.146500
     35 H10          5.4730     2.8400    -0.2700 ha         1 KC5       0.146500
     36 H11         -2.6330    -3.4080    -0.4210 hc         1 KC5       0.059200
     37 H12         -1.8000    -3.2890     1.1100 hc         1 KC5       0.059200
     38 H13         -2.1490     2.8880    -0.1770 ha         1 KC5       0.164000
     39 H15         -6.5210     1.6240     0.2000 ho         1 KC5       0.441000
     40 H14          3.2340    -2.0900    -0.0360 hn         1 KC5       0.481800
     41 NAN          3.1320    -1.0800    -0.0130 nu         1 KC5      -0.595400
     42 OAB          1.8520    -3.4770    -0.2240 o          1 KC5      -0.596100
@<TRIPOS>BOND
     1     1    22 1   
     2     1    26 1   
     3     1    27 1   
     4     1    28 1   
     5     2    16 2   
     6     2    29 1   
     7     2    41 1   
     8     3     8 1   
     9     3    10 1   
    10     3    30 1   
    11     3    31 1   
    12     4     6 ar  
    13     4    12 ar  
    14     4    32 1   
    15     5     7 ar  
    16     5    12 ar  
    17     5    33 1   
    18     6    14 ar  
    19     6    34 1   
    20     7    14 ar  
    21     7    35 1   
    22     8    18 1   
    23     8    36 1   
    24     8    37 1   
    25     9    11 ar  
    26     9    17 ar  
    27     9    38 1   
    28    10    16 1   
    29    10    42 2   
    30    11    13 ar  
    31    11    24 1   
    32    12    41 1   
    33    13    15 ar  
    34    13    21 1   
    35    14    22 1   
    36    15    20 ar  
    37    15    25 1   
    38    16    19 1   
    39    17    20 ar  
    40    17    23 1   
    41    18    19 2   
    42    18    20 1   
    43    19    23 1   
    44    21    39 1   
    45    40    41 1   
@<TRIPOS>SUBSTRUCTURE
     1 KC5         1 TEMP              0 ****  ****    0 ROOT
