@<TRIPOS>MOLECULE
KC5
   42    45     1     0     0
SMALL
No Charge or Current Charge


@<TRIPOS>ATOM
      1 CAA          8.3990     2.9490    -0.0060 c3         1 KC5       0.146900
      2 CAF          1.8000    -0.3480    -0.0500 c2         1 KC5       0.164000
      3 CAG         -0.4130    -3.4150    -0.7100 c6         1 KC5      -0.172400
      4 CAH          5.4450    -0.9360     0.5060 ca         1 KC5      -0.105000
      5 CAI          4.5000     1.1250    -0.3590 ca         1 KC5      -0.105000
      6 CAJ          6.7040    -0.3150     0.6100 ca         1 KC5      -0.143000
      7 CAK          5.7580     1.7500    -0.2580 ca         1 KC5      -0.143000
      8 CAL         -1.7340    -2.9400    -0.0510 c6         1 KC5       0.013800
      9 CAM         -3.0450     1.9120     0.0120 ca         1 KC5      -0.048000
     10 CAQ          0.8300    -2.6840    -0.1720 c          1 KC5       0.613300
     11 CAR         -4.4490     1.8000     0.0760 ca         1 KC5       0.031000
     12 CAS          4.3360    -0.2190     0.0260 ca         1 KC5       0.241000
     13 CAT         -5.0740     0.5240     0.1120 ca         1 KC5       0.149100
     14 CAU          6.8680     1.0270     0.2320 ca         1 KC5       0.129100
     15 CAV         -4.2820    -0.6530     0.0780 ca         1 KC5       0.108000
     16 CAW          0.7370    -1.1850    -0.0760 ce         1 KC5      -0.337200
     17 CAX         -2.2880     0.7350    -0.0210 ca         1 KC5       0.025100
     18 CAY         -1.7900    -1.4290    -0.0410 cd         1 KC5      -0.166400
     19 CAZ         -0.6290    -0.6900    -0.0840 cc         1 KC5       0.145100
     20 CBA         -2.8850    -0.5000     0.0060 ca         1 KC5      -0.029800
     21 OAC         -6.4420     0.4380     0.1820 oh         1 KC5      -0.512100
     22 OAO          8.1250     1.5830     0.3550 os         1 KC5      -0.337100
     23 OAP         -0.9120     0.6740    -0.0750 os         1 KC5      -0.175200
     24 Cl1         -5.4210     3.2720     0.1190 cl         1 KC5      -0.197000
     25 Cl2         -5.0360    -2.2510     0.1420 cl         1 KC5      -0.167000
     26 H1           8.1850     3.1230    -1.0680 h1         1 KC5       0.043033
     27 H2           7.7920     3.6400     0.5940 h1         1 KC5       0.043033
     28 H3           9.4550     3.1850     0.1710 h1         1 KC5       0.043033
     29 H4           1.6970     0.7410    -0.0010 h4         1 KC5       0.201000
     30 H5          -0.2760    -4.5030    -0.6600 hc         1 KC5       0.070700
     31 H6          -0.4940    -3.1210    -1.7650 hc         1 KC5       0.070700
     32 H7           5.3340    -1.9760     0.8050 ha         1 KC5       0.123000
     33 H8           3.6570     1.6900    -0.7480 ha         1 KC5       0.123000
     34 H9           7.5560    -0.8770     0.9860 ha         1 KC5       0.128500
     35 H10          5.8500     2.7880    -0.5640 ha         1 KC5       0.128500
     36 H11         -2.5810    -3.3670    -0.6040 hc         1 KC5       0.059200
     37 H12         -1.7990    -3.3270     0.9750 hc         1 KC5       0.059200
     38 H13         -2.5610     2.8850    -0.0100 ha         1 KC5       0.146000
     39 H15         -6.8030     1.3520     0.1970 ho         1 KC5       0.480000
     40 H14          3.1280    -1.8780     0.0420 hn         1 KC5       0.537000
     41 NAN          3.0970    -0.8560    -0.0720 nu         1 KC5      -0.789000
     42 OAB          1.8490    -3.3080     0.1090 o          1 KC5      -0.596100
@<TRIPOS>BOND
     1     1    22 1   
     2     1    26 1   
     3     1    27 1   
     4     1    28 1   
     5     2    16 2   
     6     2    29 1   
     7     2    41 1   
     8     3     8 1   
     9     3    10 1   
    10     3    30 1   
    11     3    31 1   
    12     4     6 ar  
    13     4    12 ar  
    14     4    32 1   
    15     5     7 ar  
    16     5    12 ar  
    17     5    33 1   
    18     6    14 ar  
    19     6    34 1   
    20     7    14 ar  
    21     7    35 1   
    22     8    18 1   
    23     8    36 1   
    24     8    37 1   
    25     9    11 ar  
    26     9    17 ar  
    27     9    38 1   
    28    10    16 1   
    29    10    42 2   
    30    11    13 ar  
    31    11    24 1   
    32    12    41 1   
    33    13    15 ar  
    34    13    21 1   
    35    14    22 1   
    36    15    20 ar  
    37    15    25 1   
    38    16    19 1   
    39    17    20 ar  
    40    17    23 1   
    41    18    19 2   
    42    18    20 1   
    43    19    23 1   
    44    21    39 1   
    45    40    41 1   
@<TRIPOS>SUBSTRUCTURE
     1 KC5         1 TEMP              0 ****  ****    0 ROOT
