@<TRIPOS>MOLECULE
KC6
   34    35     1     0     0
SMALL
bcc


@<TRIPOS>ATOM
      1 O01         -5.4970    -1.7400    -0.0540 o          1 KC6      -0.815800
      2 C02         -5.5800    -0.5000    -0.0430 c          1 KC6       0.926200
      3 C03         -4.2570     0.2660    -0.0240 ca         1 KC6      -0.122600
      4 C04         -4.2270     1.6550    -0.0080 ca         1 KC6      -0.201300
      5 C05         -2.9990     2.2980     0.0070 ca         1 KC6       0.357200
      6 N06         -1.8400     1.6570     0.0080 nb         1 KC6      -0.700000
      7 C07         -1.8560     0.3260    -0.0060 cp         1 KC6       0.287300
      8 C08         -0.5380    -0.3550    -0.0040 cp         1 KC6       0.390300
      9 C09          0.6460     0.3780     0.0040 ca         1 KC6      -0.168300
     10 C10          1.8620    -0.2880     0.0050 ca         1 KC6      -0.125600
     11 C11          3.1160     0.5450     0.0160 c          1 KC6       0.679700
     12 N12          4.2790    -0.1100    -0.0330 ns         1 KC6      -0.577900
     13 C13          5.5560     0.5750    -0.0220 c3         1 KC6       0.104000
     14 C14          6.6920    -0.4350    -0.0320 c3         1 KC6       0.131800
     15 N15          7.9630     0.2650     0.0070 n8         1 KC6      -0.882800
     16 O16          3.0480     1.7660     0.0670 o          1 KC6      -0.599100
     17 C17          1.8440    -1.6790     0.0020 ca         1 KC6      -0.257300
     18 C18          0.6160    -2.3220    -0.0060 ca         1 KC6       0.395200
     19 N19         -0.5430    -1.6850    -0.0100 nb         1 KC6      -0.648000
     20 C20         -3.0410    -0.4040    -0.0220 ca         1 KC6      -0.162300
     21 O21         -6.6130     0.1930    -0.0440 o          1 KC6      -0.815800
     22 H04         -5.1420     2.2310    -0.0080 ha         1 KC6       0.154000
     23 H05         -2.9500     3.3810     0.0190 h4         1 KC6      -0.005900
     24 H09          0.6090     1.4570     0.0090 ha         1 KC6       0.187000
     25 HN12         4.2930    -1.1140    -0.0890 hn         1 KC6       0.313500
     26 H13          5.6430     1.2320    -0.8910 h1         1 KC6       0.058200
     27 H13A         5.6280     1.2060     0.8680 h1         1 KC6       0.058200
     28 H14          6.5490    -1.1450     0.7950 h1         1 KC6       0.029200
     29 H14A         6.6450    -1.0170    -0.9560 h1         1 KC6       0.029200
     30 HN15         8.1090     0.6500     0.9320 hn         1 KC6       0.338800
     31 HN1A         8.7150    -0.3960    -0.1360 hn         1 KC6       0.338800
     32 H17          2.7370    -2.2880     0.0110 ha         1 KC6       0.118000
     33 H18          0.5750    -3.4050    -0.0080 h4         1 KC6       0.012100
     34 H20         -3.0130    -1.4830    -0.0330 ha         1 KC6       0.174000
@<TRIPOS>BOND
     1     1     2 1   
     2     2     3 1   
     3     2    21 1   
     4     3     4 ar  
     5     3    20 ar  
     6     4     5 ar  
     7     4    22 1   
     8     5     6 ar  
     9     5    23 1   
    10     6     7 ar  
    11     7     8 1   
    12     7    20 ar  
    13     8     9 ar  
    14     8    19 ar  
    15     9    10 ar  
    16     9    24 1   
    17    10    11 1   
    18    10    17 ar  
    19    11    12 1   
    20    11    16 2   
    21    12    13 1   
    22    12    25 1   
    23    13    14 1   
    24    13    26 1   
    25    13    27 1   
    26    14    15 1   
    27    14    28 1   
    28    14    29 1   
    29    15    30 1   
    30    15    31 1   
    31    17    18 ar  
    32    17    32 1   
    33    18    19 ar  
    34    18    33 1   
    35    20    34 1   
@<TRIPOS>SUBSTRUCTURE
     1 KC6         1 TEMP              0 ****  ****    0 ROOT
