@<TRIPOS>MOLECULE
KC6
   34    35     1     0     0
SMALL
No Charge or Current Charge


@<TRIPOS>ATOM
      1 O01         -5.6320    -1.7790    -0.0290 o          1 KC6      -0.710500
      2 C02         -5.6980    -0.5580    -0.0080 c          1 KC6       0.715600
      3 C03         -4.4060     0.2380    -0.0010 ca         1 KC6      -0.122600
      4 C04         -4.4070     1.6490     0.0230 ca         1 KC6      -0.118000
      5 C05         -3.1870     2.3420     0.0290 ca         1 KC6       0.291900
      6 N06         -1.9870     1.7200     0.0130 nb         1 KC6      -0.700000
      7 C07         -1.9400     0.3580    -0.0100 cp         1 KC6       0.222000
      8 C08         -0.5710    -0.3120    -0.0280 cp         1 KC6       0.325000
      9 C09          0.6340     0.4440    -0.0210 ca         1 KC6      -0.085000
     10 C10          1.8940    -0.1950    -0.0380 ca         1 KC6      -0.125600
     11 C11          3.1650     0.6280    -0.0300 c          1 KC6       0.612700
     12 N12          4.3500    -0.0720    -0.0480 ns         1 KC6      -0.510900
     13 C13          5.6790     0.5490    -0.0430 c3         1 KC6       0.104000
     14 C14          6.8190    -0.4990     0.0060 c3         1 KC6       0.131800
     15 N15          8.1650     0.1180     0.0080 n8         1 KC6      -0.993200
     16 O16          3.1520     1.8510    -0.0080 o          1 KC6      -0.599100
     17 C17          1.8890    -1.6090    -0.0620 ca         1 KC6      -0.174000
     18 C18          0.6650    -2.2970    -0.0680 ca         1 KC6       0.329900
     19 N19         -0.5300    -1.6710    -0.0520 nb         1 KC6      -0.648000
     20 C20         -3.1450    -0.4010    -0.0170 ca         1 KC6      -0.079000
     21 O21         -6.7580     0.0520     0.0080 o          1 KC6      -0.710500
     22 H04         -5.3360     2.2120     0.0370 ha         1 KC6       0.136000
     23 H05         -3.1670     3.4310     0.0480 h4         1 KC6      -0.005900
     24 H09          0.5800     1.5280    -0.0020 ha         1 KC6       0.169000
     25 HN12         4.2840    -1.0820    -0.0660 hn         1 KC6       0.313500
     26 H13          5.7840     1.1600    -0.9500 h1         1 KC6       0.058200
     27 H13A         5.7550     1.2120     0.8280 h1         1 KC6       0.058200
     28 H14          6.7130    -1.1120     0.9110 h1         1 KC6       0.029200
     29 H14A         6.7410    -1.1590    -0.8690 h1         1 KC6       0.029200
     30 HN15         8.2910     0.6520     0.8780 hn         1 KC6       0.394000
     31 HN1A         8.8740    -0.6240     0.0800 hn         1 KC6       0.394000
     32 H17          2.8080    -2.1870    -0.0760 ha         1 KC6       0.100000
     33 H18          0.6420    -3.3860    -0.0870 h4         1 KC6       0.012100
     34 H20         -3.0940    -1.4860    -0.0360 ha         1 KC6       0.156000
@<TRIPOS>BOND
     1     1     2 1   
     2     2     3 1   
     3     2    21 1   
     4     3     4 ar  
     5     3    20 ar  
     6     4     5 ar  
     7     4    22 1   
     8     5     6 ar  
     9     5    23 1   
    10     6     7 ar  
    11     7     8 1   
    12     7    20 ar  
    13     8     9 ar  
    14     8    19 ar  
    15     9    10 ar  
    16     9    24 1   
    17    10    11 1   
    18    10    17 ar  
    19    11    12 1   
    20    11    16 2   
    21    12    13 1   
    22    12    25 1   
    23    13    14 1   
    24    13    26 1   
    25    13    27 1   
    26    14    15 1   
    27    14    28 1   
    28    14    29 1   
    29    15    30 1   
    30    15    31 1   
    31    17    18 ar  
    32    17    32 1   
    33    18    19 ar  
    34    18    33 1   
    35    20    34 1   
@<TRIPOS>SUBSTRUCTURE
     1 KC6         1 TEMP              0 ****  ****    0 ROOT
