@<TRIPOS>MOLECULE
KC7
   51    54     1     0     0
SMALL
No Charge or Current Charge


@<TRIPOS>ATOM
      1 O2           0.1620     1.8800    -1.6030 oh         1 KC7      -0.634000
      2 C1          -0.7980     1.1960    -0.7760 c5         1 KC7       0.102300
      3 C2          -2.2710     1.6080    -1.1230 c5         1 KC7       0.140300
      4 O1          -2.2910     2.9190    -1.6800 oh         1 KC7      -0.652000
      5 C3          -3.0380     1.5650     0.2490 c5         1 KC7      -0.068700
      6 C5          -4.4250     0.8860     0.1710 c3         1 KC7       0.167600
      7 O           -5.0790     0.9370     1.4440 oh         1 KC7      -0.655000
      8 C4          -2.0290     0.8840     1.2210 c5         1 KC7      -0.081400
      9 C           -0.7120     1.5420     0.7490 c5         1 KC7       0.239500
     10 N            0.3470     0.6710     1.3420 nu         1 KC7      -0.908100
     11 C6           1.6350     1.1480     1.1150 ca         1 KC7       0.432900
     12 N2           1.8910     2.3760     1.6000 nb         1 KC7      -0.292000
     13 C13          3.1350     2.8490     1.4160 ca         1 KC7       0.183900
     14 N1           4.1490     2.2150     0.8020 nb         1 KC7      -0.231000
     15 C12          3.9090     0.9800     0.3160 ca         1 KC7       0.088000
     16 C7           2.6290     0.3800     0.4500 ca         1 KC7      -0.212000
     17 C11          4.9400     0.2800    -0.3320 ca         1 KC7      -0.141000
     18 C10          4.7240    -1.0040    -0.8490 ca         1 KC7      -0.045000
     19 C9           3.4630    -1.6020    -0.7270 ca         1 KC7      -0.238000
     20 C8           2.4090    -0.9210    -0.0830 ca         1 KC7       0.194100
     21 O3           1.1610    -1.5000     0.0210 os         1 KC7      -0.382100
     22 C14          0.7720    -2.6920    -0.6760 c3         1 KC7       0.222900
     23 C15         -0.7330    -2.8310    -0.4960 ca         1 KC7      -0.105300
     24 C20         -1.6120    -2.4560    -1.5320 ca         1 KC7      -0.085000
     25 C19         -3.0030    -2.5410    -1.3480 ca         1 KC7      -0.114000
     26 C18         -3.5240    -3.0010    -0.1260 ca         1 KC7      -0.099000
     27 C17         -2.6520    -3.3750     0.9100 ca         1 KC7      -0.114000
     28 C16         -1.2610    -3.2890     0.7270 ca         1 KC7      -0.085000
     29 H2           1.0360     1.4710    -1.4170 ho         1 KC7       0.441000
     30 H1          -0.6970     0.1140    -0.9260 h1         1 KC7       0.032700
     31 HA          -2.6950     0.8880    -1.8380 h1         1 KC7       0.034700
     32 H           -0.6560     2.6200     0.9720 h1         1 KC7       0.115700
     33 HB          -1.3610     3.0450    -1.9870 ho         1 KC7       0.459000
     34 H3          -3.2310     2.5890     0.5940 hc         1 KC7       0.091700
     35 H51C        -5.0310     1.4030    -0.5860 h1         1 KC7       0.017700
     36 H52C        -4.2980    -0.1550    -0.1530 h1         1 KC7       0.017700
     37 H41C        -2.2490     1.0990     2.2730 hc         1 KC7       0.060700
     38 H42C        -2.0310    -0.2070     1.0990 hc         1 KC7       0.060700
     39 HC          -5.9500     0.4960     1.3350 ho         1 KC7       0.441000
     40 HD           0.3080    -0.3230     1.1040 hn         1 KC7       0.513000
     41 H13          3.3430     3.8440     1.8050 h5         1 KC7       0.041100
     42 H11          5.9220     0.7370    -0.4340 ha         1 KC7       0.136000
     43 H10          5.5340    -1.5340    -1.3460 ha         1 KC7       0.113000
     44 H9           3.3240    -2.5990    -1.1350 ha         1 KC7       0.117000
     45 H141         1.0090    -2.6140    -1.7450 h1         1 KC7       0.049700
     46 H142         1.2850    -3.5720    -0.2680 h1         1 KC7       0.049700
     47 H20         -1.2180    -2.0890    -2.4780 ha         1 KC7       0.118000
     48 H16         -0.5930    -3.5700     1.5380 ha         1 KC7       0.118000
     49 H19         -3.6760    -2.2480    -2.1500 ha         1 KC7       0.116500
     50 H18         -4.6000    -3.0650     0.0170 ha         1 KC7       0.110000
     51 H17         -3.0550    -3.7270     1.8580 ha         1 KC7       0.116500
@<TRIPOS>BOND
     1     1     2 1   
     2     1    29 1   
     3     2     3 1   
     4     2     9 1   
     5     2    30 1   
     6     3     4 1   
     7     3     5 1   
     8     3    31 1   
     9     4    33 1   
    10     5     6 1   
    11     5     8 1   
    12     5    34 1   
    13     6     7 1   
    14     6    35 1   
    15     6    36 1   
    16     7    39 1   
    17     8     9 1   
    18     8    37 1   
    19     8    38 1   
    20     9    10 1   
    21     9    32 1   
    22    10    11 1   
    23    10    40 1   
    24    11    12 ar  
    25    11    16 ar  
    26    12    13 ar  
    27    13    14 ar  
    28    13    41 1   
    29    14    15 ar  
    30    15    16 ar  
    31    15    17 ar  
    32    16    20 ar  
    33    17    18 ar  
    34    17    42 1   
    35    18    19 ar  
    36    18    43 1   
    37    19    20 ar  
    38    19    44 1   
    39    20    21 1   
    40    21    22 1   
    41    22    23 1   
    42    22    45 1   
    43    22    46 1   
    44    23    24 ar  
    45    23    28 ar  
    46    24    25 ar  
    47    24    47 1   
    48    25    26 ar  
    49    25    49 1   
    50    26    27 ar  
    51    26    50 1   
    52    27    28 ar  
    53    27    51 1   
    54    28    48 1   
@<TRIPOS>SUBSTRUCTURE
     1 KC7         1 TEMP              0 ****  ****    0 ROOT
