@<TRIPOS>MOLECULE
KC7
   51    54     1     0     0
SMALL
bcc


@<TRIPOS>ATOM
      1 O2          -0.5090     2.7470    -1.8460 oh         1 KC7      -0.571800
      2 C1          -1.3570     1.9420    -1.0730 c5         1 KC7       0.079100
      3 C2          -2.7070     2.5800    -0.7330 c5         1 KC7       0.117100
      4 O1          -2.5340     3.9200    -0.3300 oh         1 KC7      -0.589800
      5 C3          -3.2090     1.7560     0.4640 c5         1 KC7      -0.068700
      6 C5          -4.2920     0.7780     0.0430 c3         1 KC7       0.144400
      7 O           -4.6900     0.0330     1.1700 oh         1 KC7      -0.592800
      8 C4          -1.9630     1.0440     1.0390 c5         1 KC7      -0.081400
      9 C           -0.7670     1.6550     0.3060 c5         1 KC7       0.239500
     10 N            0.3630     0.7650     0.2800 nu         1 KC7      -0.852900
     11 C6           1.6500     1.1190     0.3410 ca         1 KC7       0.761200
     12 N2           1.9430     2.4010     0.5170 nb         1 KC7      -0.818000
     13 C13          3.2280     2.7470     0.5690 ca         1 KC7       0.709900
     14 N1           4.2760     1.9800     0.4550 nb         1 KC7      -0.757000
     15 C12          4.0280     0.6540     0.2810 ca         1 KC7       0.481600
     16 C7           2.7120     0.1400     0.2310 ca         1 KC7      -0.342600
     17 C11          5.1260    -0.2190     0.1500 ca         1 KC7      -0.224300
     18 C10          4.9160    -1.5610    -0.0240 ca         1 KC7      -0.063000
     19 C9           3.6220    -2.0970    -0.0640 ca         1 KC7      -0.256000
     20 C8           2.5350    -1.2610     0.0680 ca         1 KC7       0.194100
     21 O3           1.2660    -1.6960     0.0650 os         1 KC7      -0.358900
     22 C14          0.9360    -3.0560    -0.2090 c3         1 KC7       0.199700
     23 C15         -0.5630    -3.0970    -0.2220 ca         1 KC7      -0.105300
     24 C20         -1.2610    -2.5860    -1.3140 ca         1 KC7      -0.103000
     25 C19         -2.6470    -2.5350    -1.3000 ca         1 KC7      -0.132000
     26 C18         -3.3490    -2.9920    -0.1920 ca         1 KC7      -0.117000
     27 C17         -2.6600    -3.5060     0.8980 ca         1 KC7      -0.132000
     28 C16         -1.2720    -3.5540     0.8830 ca         1 KC7      -0.103000
     29 H2          -0.7910     2.6970    -2.7650 ho         1 KC7       0.402000
     30 H1          -1.5490     0.9760    -1.5650 h1         1 KC7       0.032700
     31 HA          -3.3980     2.5210    -1.5860 h1         1 KC7       0.034700
     32 H           -0.4600     2.5910     0.7720 h1         1 KC7       0.115700
     33 HB          -1.9330     4.3350    -0.9600 ho         1 KC7       0.420000
     34 H3          -3.6370     2.4400     1.2000 hc         1 KC7       0.091700
     35 H51C        -5.1340     1.3350    -0.3900 h1         1 KC7       0.017700
     36 H52C        -3.9020     0.1230    -0.7490 h1         1 KC7       0.017700
     37 H41C        -1.8770     1.1430     2.1200 hc         1 KC7       0.060700
     38 H42C        -2.0150    -0.0300     0.8220 hc         1 KC7       0.060700
     39 HC          -5.2100    -0.7170     0.8690 ho         1 KC7       0.402000
     40 HD           0.1730    -0.2130     0.1270 hn         1 KC7       0.457800
     41 H13          3.4160     3.8060     0.7200 h5         1 KC7       0.041100
     42 H11          6.1250     0.1950     0.1900 ha         1 KC7       0.154000
     43 H10          5.7590    -2.2310    -0.1270 ha         1 KC7       0.131000
     44 H9           3.4950    -3.1640    -0.1910 ha         1 KC7       0.135000
     45 H141         1.3580    -3.3560    -1.1730 h1         1 KC7       0.049700
     46 H142         1.3460    -3.7090     0.5660 h1         1 KC7       0.049700
     47 H20         -0.7200    -2.2260    -2.1820 ha         1 KC7       0.136000
     48 H16         -0.7380    -3.9480     1.7390 ha         1 KC7       0.136000
     49 H19         -3.1780    -2.1380    -2.1550 ha         1 KC7       0.134500
     50 H18         -4.4310    -2.9580    -0.1840 ha         1 KC7       0.128000
     51 H17         -3.2010    -3.8670     1.7630 ha         1 KC7       0.134500
@<TRIPOS>BOND
     1     1     2 1   
     2     1    29 1   
     3     2     3 1   
     4     2     9 1   
     5     2    30 1   
     6     3     4 1   
     7     3     5 1   
     8     3    31 1   
     9     4    33 1   
    10     5     6 1   
    11     5     8 1   
    12     5    34 1   
    13     6     7 1   
    14     6    35 1   
    15     6    36 1   
    16     7    39 1   
    17     8     9 1   
    18     8    37 1   
    19     8    38 1   
    20     9    10 1   
    21     9    32 1   
    22    10    11 1   
    23    10    40 1   
    24    11    12 ar  
    25    11    16 ar  
    26    12    13 ar  
    27    13    14 ar  
    28    13    41 1   
    29    14    15 ar  
    30    15    16 ar  
    31    15    17 ar  
    32    16    20 ar  
    33    17    18 ar  
    34    17    42 1   
    35    18    19 ar  
    36    18    43 1   
    37    19    20 ar  
    38    19    44 1   
    39    20    21 1   
    40    21    22 1   
    41    22    23 1   
    42    22    45 1   
    43    22    46 1   
    44    23    24 ar  
    45    23    28 ar  
    46    24    25 ar  
    47    24    47 1   
    48    25    26 ar  
    49    25    49 1   
    50    26    27 ar  
    51    26    50 1   
    52    27    28 ar  
    53    27    51 1   
    54    28    48 1   
@<TRIPOS>SUBSTRUCTURE
     1 KC7         1 TEMP              0 ****  ****    0 ROOT
