@<TRIPOS>MOLECULE
KC8
   40    43     1     0     0
SMALL
bcc


@<TRIPOS>ATOM
      1 O            6.5870    -2.0490     0.2320 o          1 KC8      -0.641500
      2 C2           5.7870    -1.1290     0.2060 c          1 KC8       0.788500
      3 N1           5.8880     0.0540     0.8710 ns         1 KC8      -0.568900
      4 C3           4.6600     0.8070     0.7780 c5         1 KC8       0.086000
      5 N            4.6170    -1.0990    -0.5080 ns         1 KC8      -0.558900
      6 C1           4.0370     0.2330    -0.5180 c5         1 KC8       0.138700
      7 C            4.4970     1.0160    -1.7520 c3         1 KC8      -0.112100
      8 C4           2.5270     0.2110    -0.4330 ca         1 KC8      -0.062300
      9 C5           1.8020    -0.9760    -0.4340 ca         1 KC8      -0.122500
     10 C6           0.4190    -0.9640    -0.3660 ca         1 KC8      -0.091500
     11 C9           1.8280     1.4130    -0.3460 ca         1 KC8      -0.122500
     12 C8           0.4460     1.4320    -0.2750 ca         1 KC8      -0.091500
     13 C7          -0.2780     0.2400    -0.2940 ca         1 KC8      -0.147900
     14 C10         -1.7500     0.2140    -0.2300 cc         1 KC8       0.559500
     15 N3          -2.4200     1.3280    -0.6490 ns         1 KC8      -0.495400
     16 C17         -3.7910     1.4650    -0.6420 c          1 KC8       0.721100
     17 O2          -4.3220     2.4900    -1.0290 o          1 KC8      -0.612500
     18 N2          -2.3520    -0.8380     0.2030 nd         1 KC8      -0.629100
     19 C11         -3.7240    -0.8310     0.2410 ca         1 KC8       0.189400
     20 C12         -4.4850     0.2810    -0.1530 ca         1 KC8      -0.203600
     21 C16         -4.3890    -1.9780     0.6970 ca         1 KC8      -0.122000
     22 C15         -5.7660    -2.0040     0.7510 ca         1 KC8      -0.092000
     23 C14         -6.5190    -0.8920     0.3560 ca         1 KC8      -0.150000
     24 C13         -5.8800     0.2430    -0.0920 ca         1 KC8      -0.058000
     25 H1           4.0060     0.6300     1.6380 h1         1 KC8       0.055200
     26 H2           4.5590    -1.6770    -1.3350 hn         1 KC8       0.321500
     27 H3           5.5860     1.0420    -1.8020 hc         1 KC8       0.050033
     28 H4           4.1200     0.5530    -2.6640 hc         1 KC8       0.050033
     29 H5           4.1390     2.0450    -1.7250 hc         1 KC8       0.050033
     30 H6           2.3150    -1.9260    -0.4900 ha         1 KC8       0.143000
     31 H7          -0.1280    -1.8970    -0.3770 ha         1 KC8       0.147500
     32 H8           2.3600     2.3570    -0.3220 ha         1 KC8       0.143000
     33 H9          -0.0500     2.3890    -0.1770 ha         1 KC8       0.147500
     34 H10         -1.9000     2.1050    -1.0350 hn         1 KC8       0.330500
     35 H11         -3.8040    -2.8350     1.0040 ha         1 KC8       0.151000
     36 H12         -6.2690    -2.8940     1.1040 ha         1 KC8       0.136000
     37 H13         -7.5990    -0.9250     0.4050 ha         1 KC8       0.138000
     38 H14         -6.4520     1.1080    -0.4020 ha         1 KC8       0.153000
     39 H15          6.4750     0.1190     1.6860 hn         1 KC8       0.329500
     40 H16          4.8400     1.8790     0.7000 h1         1 KC8       0.055200
@<TRIPOS>BOND
     1     1     2 2   
     2     2     3 1   
     3     2     5 1   
     4     3     4 1   
     5     3    39 1   
     6     4     6 1   
     7     4    25 1   
     8     4    40 1   
     9     5     6 1   
    10     5    26 1   
    11     6     7 1   
    12     6     8 1   
    13     7    27 1   
    14     7    28 1   
    15     7    29 1   
    16     8     9 ar  
    17     8    11 ar  
    18     9    10 ar  
    19     9    30 1   
    20    10    13 ar  
    21    10    31 1   
    22    11    12 ar  
    23    11    32 1   
    24    12    13 ar  
    25    12    33 1   
    26    13    14 1   
    27    14    15 1   
    28    14    18 2   
    29    15    16 1   
    30    15    34 1   
    31    16    17 2   
    32    16    20 1   
    33    18    19 1   
    34    19    20 ar  
    35    19    21 ar  
    36    20    24 ar  
    37    21    22 ar  
    38    21    35 1   
    39    22    23 ar  
    40    22    36 1   
    41    23    24 ar  
    42    23    37 1   
    43    24    38 1   
@<TRIPOS>SUBSTRUCTURE
     1 KC8         1 TEMP              0 ****  ****    0 ROOT
