@<TRIPOS>MOLECULE
KC8
   40    43     1     0     0
SMALL
No Charge or Current Charge


@<TRIPOS>ATOM
      1 O            6.4270    -2.1400     0.4540 o          1 KC8      -0.566000
      2 C2           5.6920    -1.1810     0.3270 c          1 KC8       0.579000
      3 N1           5.6530    -0.1100     1.1470 ns         1 KC8      -0.501900
      4 C3           4.6080     0.8420     0.7770 c5         1 KC8       0.086000
      5 N            4.7800    -1.0170    -0.6580 ns         1 KC8      -0.491900
      6 C1           4.1200     0.2870    -0.6240 c5         1 KC8       0.138700
      7 C            4.6100     1.1490    -1.8110 c3         1 KC8      -0.112100
      8 C4           2.5810     0.2380    -0.5340 ca         1 KC8      -0.062300
      9 C5           1.8690    -0.9790    -0.6050 ca         1 KC8      -0.104500
     10 C6           0.4660    -1.0030    -0.5220 ca         1 KC8      -0.073500
     11 C9           1.8400     1.4280    -0.3690 ca         1 KC8      -0.104500
     12 C8           0.4380     1.4080    -0.2880 ca         1 KC8      -0.073500
     13 C7          -0.2760     0.1910    -0.3860 ca         1 KC8      -0.147900
     14 C10         -1.7440     0.1490    -0.2620 cc         1 KC8       0.559500
     15 N3          -2.4130     1.2620    -0.6990 ns         1 KC8      -0.428400
     16 C17         -3.7530     1.4220    -0.6800 c          1 KC8       0.578600
     17 O2          -4.2870     2.4430    -1.0840 o          1 KC8      -0.537000
     18 N2          -2.3470    -0.9420     0.2180 nd         1 KC8      -0.629100
     19 C11         -3.7490    -0.8660     0.2780 ca         1 KC8       0.189400
     20 C12         -4.4890     0.2560    -0.1390 ca         1 KC8      -0.203600
     21 C16         -4.4390    -1.9820     0.7870 ca         1 KC8      -0.104000
     22 C15         -5.8420    -1.9830     0.8820 ca         1 KC8      -0.074000
     23 C14         -6.5710    -0.8600     0.4650 ca         1 KC8      -0.132000
     24 C13         -5.8970     0.2610    -0.0460 ca         1 KC8      -0.040000
     25 H1           3.8040     0.8390     1.5250 h1         1 KC8       0.055200
     26 H2           4.7040    -1.7140    -1.3860 hn         1 KC8       0.321500
     27 H3           5.7050     1.1940    -1.8420 hc         1 KC8       0.050033
     28 H4           4.2650     0.7330    -2.7640 hc         1 KC8       0.050033
     29 H5           4.2420     2.1790    -1.7440 hc         1 KC8       0.050033
     30 H6           2.3940    -1.9230    -0.7210 ha         1 KC8       0.125000
     31 H7          -0.0440    -1.9630    -0.5780 ha         1 KC8       0.129500
     32 H8           2.3550     2.3840    -0.2930 ha         1 KC8       0.125000
     33 H9          -0.0830     2.3510    -0.1320 ha         1 KC8       0.129500
     34 H10         -1.8840     2.0270    -1.0870 hn         1 KC8       0.330500
     35 H11         -3.8810    -2.8560     1.1130 ha         1 KC8       0.133000
     36 H12         -6.3600    -2.8540     1.2790 ha         1 KC8       0.118000
     37 H13         -7.6570    -0.8570     0.5360 ha         1 KC8       0.120000
     38 H14         -6.4700     1.1290    -0.3700 ha         1 KC8       0.135000
     39 H15          6.2590    -0.0720     1.9580 hn         1 KC8       0.329500
     40 H16          4.9900     1.8690     0.7010 h1         1 KC8       0.055200
@<TRIPOS>BOND
     1     1     2 2   
     2     2     3 1   
     3     2     5 1   
     4     3     4 1   
     5     3    39 1   
     6     4     6 1   
     7     4    25 1   
     8     4    40 1   
     9     5     6 1   
    10     5    26 1   
    11     6     7 1   
    12     6     8 1   
    13     7    27 1   
    14     7    28 1   
    15     7    29 1   
    16     8     9 ar  
    17     8    11 ar  
    18     9    10 ar  
    19     9    30 1   
    20    10    13 ar  
    21    10    31 1   
    22    11    12 ar  
    23    11    32 1   
    24    12    13 ar  
    25    12    33 1   
    26    13    14 1   
    27    14    15 1   
    28    14    18 2   
    29    15    16 1   
    30    15    34 1   
    31    16    17 2   
    32    16    20 1   
    33    18    19 1   
    34    19    20 ar  
    35    19    21 ar  
    36    20    24 ar  
    37    21    22 ar  
    38    21    35 1   
    39    22    23 ar  
    40    22    36 1   
    41    23    24 ar  
    42    23    37 1   
    43    24    38 1   
@<TRIPOS>SUBSTRUCTURE
     1 KC8         1 TEMP              0 ****  ****    0 ROOT
