@<TRIPOS>MOLECULE
KC9
   49    53     1     0     0
SMALL
No Charge or Current Charge


@<TRIPOS>ATOM
      1 C4          14.8070    35.8440   -14.3750 cc         1 KC9      -0.155600
      2 C5          15.6570    36.8040   -14.9540 cd         1 KC9      -0.255600
      3 C6          13.9120    35.8670   -13.1610 c          1 KC9       0.633700
      4 C7          10.0980    36.3000    -9.1610 cc         1 KC9       0.593200
      5 C15          8.5370    35.7740    -7.8220 ca         1 KC9       0.027100
      6 C20         14.2840    33.4350   -15.1360 c3         1 KC9       0.069900
      7 C21         11.4020    38.4430    -9.2480 ca         1 KC9      -0.100000
      8 C22         12.3940    39.2500    -9.8240 ca         1 KC9      -0.098000
      9 C24          7.5630    35.7200    -6.8180 ca         1 KC9      -0.093000
     10 C26          7.0060    33.4700    -7.6150 ca         1 KC9      -0.128000
     11 C28         17.7140    40.6700   -15.4960 cy         1 KC9      -0.117400
     12 C1          16.0670    38.1780   -14.5050 c          1 KC9       0.666700
     13 N2          16.8750    38.7600   -15.5360 nj         1 KC9      -0.401800
     14 O3          15.7220    38.6090   -13.4120 o          1 KC9      -0.644100
     15 N8           9.7640    35.0600    -9.5710 nd         1 KC9      -0.566100
     16 N9          14.9400    34.7500   -15.2470 na         1 KC9       0.179800
     17 N10         15.7530    34.9780   -16.3280 nc         1 KC9      -0.514800
     18 O11          9.3770    36.8040    -8.0810 os         1 KC9      -0.280700
     19 C12         16.1650    36.2060   -16.1330 cd         1 KC9       0.261900
     20 N13         13.7230    37.0840   -12.5340 ns         1 KC9      -0.140000
     21 C14          8.7540    34.7440    -8.6900 ca         1 KC9       0.059400
     22 C16         11.1460    37.1490    -9.7550 ca         1 KC9      -0.101900
     23 O17         13.3500    34.8520   -12.7670 o          1 KC9      -0.588100
     24 C18         12.9220    37.4890   -11.4280 ca         1 KC9      -0.026000
     25 C19         11.9140    36.6830   -10.8490 ca         1 KC9      -0.095000
     26 C23          8.0000    33.5640    -8.6160 ca         1 KC9      -0.047000
     27 C25         13.1470    38.7760   -10.9080 ca         1 KC9      -0.134000
     28 C27          6.7880    34.5440    -6.7190 ca         1 KC9      -0.095000
     29 C29         16.2590    40.1250   -15.6520 cy         1 KC9       0.099500
     30 C30         18.0150    39.3350   -14.7430 cy         1 KC9       0.099500
     31 H1          14.5690    32.7980   -15.9810 h1         1 KC9       0.071367
     32 H2          14.5920    32.9500   -14.2030 h1         1 KC9       0.071367
     33 H3          13.1960    33.5670   -15.1390 h1         1 KC9       0.071367
     34 H4          10.8300    38.8340    -8.4080 ha         1 KC9       0.128000
     35 H5          12.5810    40.2460    -9.4280 ha         1 KC9       0.118000
     36 H6           7.4110    36.5550    -6.1390 ha         1 KC9       0.133000
     37 H7           6.4060    32.5660    -7.5340 ha         1 KC9       0.117000
     38 H8          18.2550    40.7850   -16.4420 hc         1 KC9       0.065200
     39 H9          17.8220    41.5880   -14.9080 hc         1 KC9       0.065200
     40 H10         16.8540    36.6250   -16.8550 h4         1 KC9       0.044100
     41 H11         14.2580    37.8370   -12.9410 hn         1 KC9       0.209000
     42 H12         11.7040    35.6940   -11.2450 ha         1 KC9       0.168000
     43 H13          8.1760    32.7460    -9.3100 ha         1 KC9       0.134000
     44 H14         13.9140    39.4130   -11.3440 ha         1 KC9       0.130000
     45 H15          6.0220    34.4640    -5.9510 ha         1 KC9       0.117000
     46 H16         15.8150    40.3150   -16.6360 h1         1 KC9       0.061700
     47 H17         15.5760    40.4530   -14.8590 h1         1 KC9       0.061700
     48 H18         17.9040    39.4060   -13.6540 h1         1 KC9       0.061700
     49 H19         18.9830    38.8900   -14.9960 h1         1 KC9       0.061700
@<TRIPOS>BOND
     1     1     2 2   
     2     1     3 1   
     3     1    16 1   
     4     2    12 1   
     5     2    19 1   
     6     3    20 1   
     7     3    23 2   
     8     4    15 2   
     9     4    18 1   
    10     4    22 1   
    11     5     9 ar  
    12     5    18 1   
    13     5    21 ar  
    14     6    16 1   
    15     6    31 1   
    16     6    32 1   
    17     6    33 1   
    18     7     8 ar  
    19     7    22 ar  
    20     7    34 1   
    21     8    27 ar  
    22     8    35 1   
    23     9    28 ar  
    24     9    36 1   
    25    10    26 ar  
    26    10    28 ar  
    27    10    37 1   
    28    11    29 1   
    29    11    30 1   
    30    11    38 1   
    31    11    39 1   
    32    12    13 1   
    33    12    14 2   
    34    13    29 1   
    35    13    30 1   
    36    15    21 1   
    37    16    17 1   
    38    17    19 2   
    39    19    40 1   
    40    20    24 1   
    41    20    41 1   
    42    21    26 ar  
    43    22    25 ar  
    44    24    25 ar  
    45    24    27 ar  
    46    25    42 1   
    47    26    43 1   
    48    27    44 1   
    49    28    45 1   
    50    29    46 1   
    51    29    47 1   
    52    30    48 1   
    53    30    49 1   
@<TRIPOS>SUBSTRUCTURE
     1 KC9         1 TEMP              0 ****  ****    0 ROOT
