@<TRIPOS>MOLECULE
KC9
   49    53     1     0     0
SMALL
abcg2


@<TRIPOS>ATOM
      1 C4          14.4740    36.1450   -14.5810 cc         1 KC9      -0.155600
      2 C5          15.3840    37.0730   -15.0870 cd         1 KC9      -0.255600
      3 C6          13.5010    36.1820   -13.4530 c          1 KC9       0.633700
      4 C7          10.0210    36.3990    -9.4170 cc         1 KC9       0.593200
      5 C15          8.7460    35.7560    -7.8110 ca         1 KC9       0.027100
      6 C20         13.9970    33.7270   -15.1840 c3         1 KC9       0.069900
      7 C21         10.3290    38.7230   -10.2310 ca         1 KC9      -0.100000
      8 C22         10.9370    39.6010   -11.1150 ca         1 KC9      -0.098000
      9 C24          7.8510    35.6620    -6.7660 ca         1 KC9      -0.093000
     10 C26          8.3400    33.2750    -6.7790 ca         1 KC9      -0.128000
     11 C28         18.7420    39.6370   -14.2750 cy         1 KC9      -0.117400
     12 C1          15.5830    38.4870   -14.7170 c          1 KC9       0.666700
     13 N2          16.8280    38.9460   -14.7740 nj         1 KC9      -0.401800
     14 O3          14.6450    39.2240   -14.3940 o          1 KC9      -0.644100
     15 N8          10.2370    35.1300    -9.3710 nd         1 KC9      -0.566100
     16 N9          14.6680    35.0110   -15.2870 na         1 KC9       0.179800
     17 N10         15.6090    35.1450   -16.2090 nc         1 KC9      -0.514800
     18 O11          9.1320    36.8550    -8.5060 os         1 KC9      -0.280700
     19 C12         16.0610    36.3750   -16.0960 cd         1 KC9       0.261900
     20 N13         13.0120    37.4090   -13.1790 ns         1 KC9      -0.140000
     21 C14          9.4320    34.6720    -8.3480 ca         1 KC9       0.059400
     22 C16         10.6240    37.3660   -10.3240 ca         1 KC9      -0.101900
     23 O17         13.2000    35.1570   -12.8660 o          1 KC9      -0.588100
     24 C18         12.1180    37.7770   -12.1730 ca         1 KC9      -0.026000
     25 C19         11.5130    36.8890   -11.2880 ca         1 KC9      -0.095000
     26 C23          9.2340    33.3970    -7.8310 ca         1 KC9      -0.047000
     27 C25         11.8200    39.1410   -12.0730 ca         1 KC9      -0.134000
     28 C27          7.6630    34.3830    -6.2560 ca         1 KC9      -0.095000
     29 C29         17.3230    40.2370   -14.3110 cy         1 KC9       0.099500
     30 C30         18.1490    38.3150   -14.8000 cy         1 KC9       0.099500
     31 H1          14.2570    33.1640   -16.0740 h1         1 KC9       0.071367
     32 H2          14.3290    33.1840   -14.3030 h1         1 KC9       0.071367
     33 H3          12.9200    33.8550   -15.1440 h1         1 KC9       0.071367
     34 H4           9.6420    39.0990    -9.4870 ha         1 KC9       0.128000
     35 H5          10.7200    40.6590   -11.0560 ha         1 KC9       0.118000
     36 H6           7.3300    36.5210    -6.3660 ha         1 KC9       0.133000
     37 H7           8.1580    32.2990    -6.3480 ha         1 KC9       0.117000
     38 H8          19.4580    40.1100   -14.9430 hc         1 KC9       0.065200
     39 H9          19.1720    39.5690   -13.2790 hc         1 KC9       0.065200
     40 H10         16.8320    36.7340   -16.7610 h4         1 KC9       0.044100
     41 H11         13.4040    38.1840   -13.7270 hn         1 KC9       0.209000
     42 H12         11.7160    35.8320   -11.3360 ha         1 KC9       0.168000
     43 H13          9.7560    32.5390    -8.2330 ha         1 KC9       0.134000
     44 H14         12.2860    39.8450   -12.7520 ha         1 KC9       0.130000
     45 H15          6.9740    34.2420    -5.4340 ha         1 KC9       0.117000
     46 H16         17.1700    41.0440   -15.0290 h1         1 KC9       0.061700
     47 H17         16.9100    40.5370   -13.3470 h1         1 KC9       0.061700
     48 H18         18.2350    37.4530   -14.1370 h1         1 KC9       0.061700
     49 H19         18.4820    38.0340   -15.7980 h1         1 KC9       0.061700
@<TRIPOS>BOND
     1     1     2 2   
     2     1     3 1   
     3     1    16 1   
     4     2    12 1   
     5     2    19 1   
     6     3    20 1   
     7     3    23 2   
     8     4    15 2   
     9     4    18 1   
    10     4    22 1   
    11     5     9 ar  
    12     5    18 1   
    13     5    21 ar  
    14     6    16 1   
    15     6    31 1   
    16     6    32 1   
    17     6    33 1   
    18     7     8 ar  
    19     7    22 ar  
    20     7    34 1   
    21     8    27 ar  
    22     8    35 1   
    23     9    28 ar  
    24     9    36 1   
    25    10    26 ar  
    26    10    28 ar  
    27    10    37 1   
    28    11    29 1   
    29    11    30 1   
    30    11    38 1   
    31    11    39 1   
    32    12    13 1   
    33    12    14 2   
    34    13    29 1   
    35    13    30 1   
    36    15    21 1   
    37    16    17 1   
    38    17    19 2   
    39    19    40 1   
    40    20    24 1   
    41    20    41 1   
    42    21    26 ar  
    43    22    25 ar  
    44    24    25 ar  
    45    24    27 ar  
    46    25    42 1   
    47    26    43 1   
    48    27    44 1   
    49    28    45 1   
    50    29    46 1   
    51    29    47 1   
    52    30    48 1   
    53    30    49 1   
@<TRIPOS>SUBSTRUCTURE
     1 KC9         1 TEMP              0 ****  ****    0 ROOT
