@<TRIPOS>MOLECULE
KCA
   53    55     1     0     0
SMALL
No Charge or Current Charge


@<TRIPOS>ATOM
      1 N           -2.3940    -0.1030     0.0530 ns         1 KCA      -0.490900
      2 CA          -3.8450     0.1310    -0.1520 c3         1 KCA       0.061700
      3 C           -4.1060     1.6580    -0.2930 c          1 KCA       0.580100
      4 O           -3.4380     2.5210     0.2670 o          1 KCA      -0.492000
      5 CB          -4.7390    -0.5660     0.9400 c3         1 KCA      -0.048000
      6 CG1         -6.2450    -0.3120     0.6490 c3         1 KCA      -0.088100
      7 CG2         -4.5020    -2.1020     0.9260 c3         1 KCA      -0.088100
      8 CAB         -1.6290    -1.0570    -0.5940 c          1 KCA       0.560800
      9 CAG         -5.3570     3.3060    -1.5350 c3         1 KCA       0.150900
     10 CAL         -4.4070    -0.0250     2.3590 c3         1 KCA      -0.088100
     11 CAM         -0.1910    -1.0730    -0.1400 cc         1 KCA       0.294900
     12 CAQ          3.7320     0.7870     1.0640 ca         1 KCA      -0.142300
     13 CAR          5.0610     0.7100     1.5300 ca         1 KCA      -0.061000
     14 CAS          6.0810     1.4250     0.8790 ca         1 KCA      -0.154000
     15 CAT          5.7770     2.2210    -0.2340 ca         1 KCA       0.185000
     16 CAV          4.4580     2.3100    -0.7020 ca         1 KCA      -0.154000
     17 CAW          3.4350     1.5960    -0.0540 ca         1 KCA      -0.061000
     18 CAX          1.9690    -1.6660     0.0070 ca         1 KCA      -0.049200
     19 CAY          0.8240    -1.9770    -0.6600 ca         1 KCA      -0.181900
     20 CAZ          0.7890    -2.9920    -1.6310 ca         1 KCA      -0.024000
     21 CBA          1.9910    -3.6860    -1.8950 ca         1 KCA      -0.146000
     22 CBB          3.1810    -3.3590    -1.1990 ca         1 KCA      -0.074000
     23 CBC          3.1800    -2.3330    -0.2300 ca         1 KCA      -0.126000
     24 FAU          6.7590     2.9080    -0.8580 f          1 KCA      -0.176000
     25 NAN          0.3210    -0.2500     0.8020 nd         1 KCA      -0.514100
     26 NAO          1.6560    -0.6390     0.8720 na         1 KCA       0.091600
     27 OAA         -2.1150    -1.7910    -1.4480 o          1 KCA      -0.600100
     28 OAF         -5.0500     1.9280    -1.2530 os         1 KCA      -0.433100
     29 H1          -1.8990     0.4760     0.7250 hn         1 KCA       0.345500
     30 H2          -4.1220    -0.2950    -1.1260 h1         1 KCA       0.106700
     31 H3          -6.5090    -0.6390    -0.3640 hc         1 KCA       0.040144
     32 H4          -6.8790    -0.8630     1.3550 hc         1 KCA       0.040144
     33 H5          -6.5000     0.7500     0.7430 hc         1 KCA       0.040144
     34 H6          -3.4730    -2.3520     1.2100 hc         1 KCA       0.040144
     35 H7          -5.1680    -2.6090     1.6350 hc         1 KCA       0.040144
     36 H8          -4.6920    -2.5190    -0.0700 hc         1 KCA       0.040144
     37 H9          -6.1290     3.3740    -2.3110 h1         1 KCA       0.049700
     38 H10         -5.7320     3.8140    -0.6370 h1         1 KCA       0.049700
     39 H11         -4.4670     3.8410    -1.8920 h1         1 KCA       0.049700
     40 H12         -4.5890     1.0540     2.4280 hc         1 KCA       0.040144
     41 H13         -5.0290    -0.5150     3.1180 hc         1 KCA       0.040144
     42 H14         -3.3580    -0.2100     2.6220 hc         1 KCA       0.040144
     43 H15          3.0750    -0.7820     2.4010 h1         1 KCA       0.074200
     44 H16          2.0860     0.6810     2.4470 h1         1 KCA       0.074200
     45 H17          5.3050     0.0940     2.3940 ha         1 KCA       0.123000
     46 H18          7.1060     1.3630     1.2370 ha         1 KCA       0.135500
     47 H19          4.2300     2.9320    -1.5640 ha         1 KCA       0.135500
     48 H20          2.4140     1.6750    -0.4220 ha         1 KCA       0.123000
     49 H21         -0.1230    -3.2440    -2.1660 ha         1 KCA       0.142000
     50 H22          2.0020    -4.4780    -2.6400 ha         1 KCA       0.117000
     51 H23          4.1000    -3.9000    -1.4130 ha         1 KCA       0.113000
     52 H24          4.0880    -2.0730     0.3080 ha         1 KCA       0.119000
     53 CAP          2.6290     0.0020     1.7780 c3         1 KCA       0.143900
@<TRIPOS>BOND
     1     1     2 1   
     2     1     8 1   
     3     1    29 1   
     4     2     3 1   
     5     2     5 1   
     6     2    30 1   
     7     3     4 2   
     8     3    28 1   
     9     5     6 1   
    10     5     7 1   
    11     5    10 1   
    12     6    31 1   
    13     6    32 1   
    14     6    33 1   
    15     7    34 1   
    16     7    35 1   
    17     7    36 1   
    18     8    11 1   
    19     8    27 2   
    20     9    28 1   
    21     9    37 1   
    22     9    38 1   
    23     9    39 1   
    24    10    40 1   
    25    10    41 1   
    26    10    42 1   
    27    11    19 1   
    28    11    25 2   
    29    12    13 ar  
    30    12    17 ar  
    31    12    53 1   
    32    13    14 ar  
    33    13    45 1   
    34    14    15 ar  
    35    14    46 1   
    36    15    16 ar  
    37    15    24 1   
    38    16    17 ar  
    39    16    47 1   
    40    17    48 1   
    41    18    19 ar  
    42    18    23 ar  
    43    18    26 1   
    44    19    20 ar  
    45    20    21 ar  
    46    20    49 1   
    47    21    22 ar  
    48    21    50 1   
    49    22    23 ar  
    50    22    51 1   
    51    23    52 1   
    52    25    26 1   
    53    26    53 1   
    54    43    53 1   
    55    44    53 1   
@<TRIPOS>SUBSTRUCTURE
     1 KCA         1 TEMP              0 ****  ****    0 ROOT
