@<TRIPOS>MOLECULE
KCA
   53    55     1     0     0
SMALL
bcc


@<TRIPOS>ATOM
      1 N           -2.2250    -0.2700     0.1170 ns         1 KCA      -0.557900
      2 CA          -3.5920     0.0790    -0.1740 c3         1 KCA       0.061700
      3 C           -3.6600     1.5850    -0.3670 c          1 KCA       0.629100
      4 O           -3.0170     2.3730     0.2810 o          1 KCA      -0.541000
      5 CB          -4.5810    -0.4290     0.9180 c3         1 KCA      -0.048000
      6 CG1         -6.0080     0.0090     0.5780 c3         1 KCA      -0.088100
      7 CG2         -4.5240    -1.9580     0.9190 c3         1 KCA      -0.088100
      8 CAB         -1.5140    -1.1720    -0.5840 c          1 KCA       0.627800
      9 CAG         -4.7080     3.3230    -1.5580 c3         1 KCA       0.127700
     10 CAL         -4.2080     0.0890     2.3070 c3         1 KCA      -0.088100
     11 CAM         -0.1110    -1.3280    -0.1520 cc         1 KCA       0.294900
     12 CAQ          3.3650     0.7970     1.0890 ca         1 KCA      -0.142300
     13 CAR          4.7370     0.6360     0.9450 ca         1 KCA      -0.079000
     14 CAS          5.4950     1.5530     0.2270 ca         1 KCA      -0.172000
     15 CAT          4.8520     2.6310    -0.3450 ca         1 KCA       0.149900
     16 CAV          3.4890     2.8270    -0.2200 ca         1 KCA      -0.172000
     17 CAW          2.7510     1.9020     0.5030 ca         1 KCA      -0.079000
     18 CAX          2.0070    -1.9540     0.1060 ca         1 KCA      -0.049200
     19 CAY          0.8580    -2.2420    -0.6490 ca         1 KCA      -0.181900
     20 CAZ          0.9010    -3.2540    -1.6190 ca         1 KCA      -0.042000
     21 CBA          2.0870    -3.9290    -1.7970 ca         1 KCA      -0.164000
     22 CBB          3.2300    -3.6230    -1.0310 ca         1 KCA      -0.092000
     23 CBC          3.2150    -2.6370    -0.0700 ca         1 KCA      -0.144000
     24 FAU          5.5720     3.5200    -1.0460 f          1 KCA      -0.140900
     25 NAN          0.4060    -0.5780     0.7960 nd         1 KCA      -0.514100
     26 NAO          1.6630    -0.9540     0.9640 na         1 KCA       0.120900
     27 OAA         -1.9580    -1.8330    -1.5120 o          1 KCA      -0.599100
     28 OAF         -4.5040     1.9270    -1.3220 os         1 KCA      -0.409900
     29 H1          -1.7460     0.2440     0.8420 hn         1 KCA       0.345500
     30 H2          -3.8670    -0.4050    -1.1130 h1         1 KCA       0.106700
     31 H3          -6.2910    -0.2840    -0.4350 hc         1 KCA       0.040144
     32 H4          -6.7080    -0.4670     1.2660 hc         1 KCA       0.040144
     33 H5          -6.1500     1.0860     0.6720 hc         1 KCA       0.040144
     34 H6          -3.5350    -2.3310     1.1870 hc         1 KCA       0.040144
     35 H7          -5.2320    -2.3540     1.6500 hc         1 KCA       0.040144
     36 H8          -4.7870    -2.3680    -0.0580 hc         1 KCA       0.040144
     37 H9          -5.4450     3.3860    -2.3520 h1         1 KCA       0.049700
     38 H10         -5.0900     3.8230    -0.6680 h1         1 KCA       0.049700
     39 H11         -3.7870     3.8090    -1.8770 h1         1 KCA       0.049700
     40 H12         -4.2770     1.1750     2.3810 hc         1 KCA       0.040144
     41 H13         -4.8910    -0.3310     3.0470 hc         1 KCA       0.040144
     42 H14         -3.1990    -0.2080     2.5990 hc         1 KCA       0.040144
     43 H15          3.1850    -0.9240     2.3680 h1         1 KCA       0.074200
     44 H16          1.9120     0.2640     2.5920 h1         1 KCA       0.074200
     45 H17          5.2350    -0.2110     1.4010 ha         1 KCA       0.141000
     46 H18          6.5640     1.4250     0.1150 ha         1 KCA       0.153500
     47 H19          3.0130     3.6860    -0.6730 ha         1 KCA       0.153500
     48 H20          1.6840     2.0490     0.6090 ha         1 KCA       0.141000
     49 H21          0.0290    -3.4940    -2.2110 ha         1 KCA       0.160000
     50 H22          2.1490    -4.7130    -2.5390 ha         1 KCA       0.135000
     51 H23          4.1420    -4.1780    -1.2020 ha         1 KCA       0.131000
     52 H24          4.0960    -2.4110     0.5140 ha         1 KCA       0.137000
     53 CAP          2.5430    -0.2140     1.8450 c3         1 KCA       0.114600
@<TRIPOS>BOND
     1     1     2 1   
     2     1     8 1   
     3     1    29 1   
     4     2     3 1   
     5     2     5 1   
     6     2    30 1   
     7     3     4 2   
     8     3    28 1   
     9     5     6 1   
    10     5     7 1   
    11     5    10 1   
    12     6    31 1   
    13     6    32 1   
    14     6    33 1   
    15     7    34 1   
    16     7    35 1   
    17     7    36 1   
    18     8    11 1   
    19     8    27 2   
    20     9    28 1   
    21     9    37 1   
    22     9    38 1   
    23     9    39 1   
    24    10    40 1   
    25    10    41 1   
    26    10    42 1   
    27    11    19 1   
    28    11    25 2   
    29    12    13 ar  
    30    12    17 ar  
    31    12    53 1   
    32    13    14 ar  
    33    13    45 1   
    34    14    15 ar  
    35    14    46 1   
    36    15    16 ar  
    37    15    24 1   
    38    16    17 ar  
    39    16    47 1   
    40    17    48 1   
    41    18    19 ar  
    42    18    23 ar  
    43    18    26 1   
    44    19    20 ar  
    45    20    21 ar  
    46    20    49 1   
    47    21    22 ar  
    48    21    50 1   
    49    22    23 ar  
    50    22    51 1   
    51    23    52 1   
    52    25    26 1   
    53    26    53 1   
    54    43    53 1   
    55    44    53 1   
@<TRIPOS>SUBSTRUCTURE
     1 KCA         1 TEMP              0 ****  ****    0 ROOT
