@<TRIPOS>MOLECULE
KCB
   49    52     1     0     0
SMALL
No Charge or Current Charge


@<TRIPOS>ATOM
      1 C           93.9990   -10.6120    13.7550 cc         1 KCB       0.657400
      2 N           93.4940    -9.7470    12.8330 na         1 KCB      -0.109700
      3 O           89.3160    -5.9730    10.3550 os         1 KCB      -0.339100
      4 C16         90.8920   -10.7330    19.3120 ca         1 KCB       0.128000
      5 C15         90.6800   -11.4880    18.1470 ca         1 KCB      -0.105500
      6 C14         91.2960   -11.1070    16.9420 ca         1 KCB      -0.084500
      7 C17         91.7180    -9.5990    19.2750 ca         1 KCB      -0.105500
      8 C18         92.3350    -9.2160    18.0710 ca         1 KCB      -0.084500
      9 C13         92.1270    -9.9670    16.8950 ca         1 KCB      -0.103300
     10 C12         92.7990    -9.5390    15.5860 c6         1 KCB       0.266800
     11 N1          93.6180   -10.6320    15.0490 nu         1 KCB      -0.901100
     12 N3          94.9450   -11.3410    13.2510 nd         1 KCB      -0.753000
     13 C19         95.0020   -10.8910    11.9360 cd         1 KCB       0.536900
     14 N2          94.1460    -9.9080    11.6480 nc         1 KCB      -0.534800
     15 C11         91.7710    -9.1060    14.5020 c6         1 KCB      -0.102400
     16 C1          92.4470    -8.7400    13.1460 c6         1 KCB       0.169600
     17 C2          91.3810    -8.5890    12.0380 ca         1 KCB      -0.139300
     18 C8          90.8980    -9.7350    11.3770 ca         1 KCB      -0.036000
     19 C7          89.9320    -9.6270    10.3720 ca         1 KCB      -0.200000
     20 C6          89.4100    -8.3670    10.0170 ca         1 KCB       0.144100
     21 O1          88.4850    -8.2400     8.9920 os         1 KCB      -0.323100
     22 C9          87.9920    -9.3640     8.2430 c3         1 KCB       0.143900
     23 C4          89.8510    -7.2030    10.7000 ca         1 KCB       0.041100
     24 C5          87.9180    -5.7000    10.5680 c3         1 KCB       0.149900
     25 C3          90.8590    -7.3140    11.7110 ca         1 KCB       0.136100
     26 O2          91.3700    -6.2390    12.4350 os         1 KCB      -0.368100
     27 C10         91.0140    -4.8600    12.2370 c3         1 KCB       0.147900
     28 H1          90.0420   -12.3670    18.1790 ha         1 KCB       0.133000
     29 H2          91.1310   -11.7010    16.0450 ha         1 KCB       0.126000
     30 H3          91.8800    -9.0180    20.1790 ha         1 KCB       0.133000
     31 H4          92.9730    -8.3350    18.0540 ha         1 KCB       0.126000
     32 H5          93.4520    -8.6780    15.7940 h1         1 KCB       0.044700
     33 H6          94.2640   -11.1310    15.6530 hn         1 KCB       0.499000
     34 H7          95.7050   -11.3060    11.2210 h5         1 KCB       0.060100
     35 H8          91.1860    -8.2500    14.8650 hc         1 KCB       0.074700
     36 H9          91.0540    -9.9210    14.3390 hc         1 KCB       0.074700
     37 H10         92.9810    -7.7890    13.2780 h1         1 KCB       0.078700
     38 H11         91.2800   -10.7210    11.6370 ha         1 KCB       0.124000
     39 H12         89.6060   -10.5360     9.8760 ha         1 KCB       0.124000
     40 H13         87.2730    -9.0290     7.4860 h1         1 KCB       0.043367
     41 H14         88.8120    -9.8800     7.7270 h1         1 KCB       0.043367
     42 H15         87.4830   -10.0790     8.9020 h1         1 KCB       0.043367
     43 H16         87.6930    -4.6580    10.3110 h1         1 KCB       0.036700
     44 H17         87.2780    -6.3420     9.9510 h1         1 KCB       0.036700
     45 H18         87.6510    -5.8570    11.6210 h1         1 KCB       0.036700
     46 H19         91.5920    -4.2210    12.9160 h1         1 KCB       0.043367
     47 H20         91.2340    -4.5400    11.2100 h1         1 KCB       0.043367
     48 H21         89.9510    -4.6930    12.4500 h1         1 KCB       0.043367
     49 Cl          90.1210   -11.2110    20.8200 cl         1 KCB      -0.198000
@<TRIPOS>BOND
     1     1     2 1   
     2     1    11 1   
     3     1    12 2   
     4     2    14 1   
     5     2    16 1   
     6     3    23 1   
     7     3    24 1   
     8     4     5 ar  
     9     4     7 ar  
    10     4    49 1   
    11     5     6 ar  
    12     5    28 1   
    13     6     9 ar  
    14     6    29 1   
    15     7     8 ar  
    16     7    30 1   
    17     8     9 ar  
    18     8    31 1   
    19     9    10 1   
    20    10    11 1   
    21    10    15 1   
    22    10    32 1   
    23    11    33 1   
    24    12    13 1   
    25    13    14 2   
    26    13    34 1   
    27    15    16 1   
    28    15    35 1   
    29    15    36 1   
    30    16    17 1   
    31    16    37 1   
    32    17    18 ar  
    33    17    25 ar  
    34    18    19 ar  
    35    18    38 1   
    36    19    20 ar  
    37    19    39 1   
    38    20    21 1   
    39    20    23 ar  
    40    21    22 1   
    41    22    40 1   
    42    22    41 1   
    43    22    42 1   
    44    23    25 ar  
    45    24    43 1   
    46    24    44 1   
    47    24    45 1   
    48    25    26 1   
    49    26    27 1   
    50    27    46 1   
    51    27    47 1   
    52    27    48 1   
@<TRIPOS>SUBSTRUCTURE
     1 KCB         1 TEMP              0 ****  ****    0 ROOT
