@<TRIPOS>MOLECULE
KCB
   49    52     1     0     0
SMALL
abcg2


@<TRIPOS>ATOM
      1 C           93.9910   -10.2240    13.6920 cc         1 KCB       0.657400
      2 N           93.3350    -9.3880    12.8760 na         1 KCB      -0.109700
      3 O           89.1110    -6.0400    10.3760 os         1 KCB      -0.339100
      4 C16         90.8530   -10.9770    19.1240 ca         1 KCB       0.128000
      5 C15         91.0270   -11.8260    18.0420 ca         1 KCB      -0.105500
      6 C14         91.6290   -11.3410    16.8910 ca         1 KCB      -0.084500
      7 C17         91.2680    -9.6570    19.0700 ca         1 KCB      -0.105500
      8 C18         91.8720    -9.1890    17.9120 ca         1 KCB      -0.084500
      9 C13         92.0600   -10.0200    16.8130 ca         1 KCB      -0.103300
     10 C12         92.6830    -9.4730    15.5550 c6         1 KCB       0.266800
     11 N1          93.5860   -10.4510    14.9680 nu         1 KCB      -0.901100
     12 N3          95.0170   -10.7630    13.0630 nd         1 KCB      -0.753000
     13 C19         94.9380   -10.1900    11.8390 cd         1 KCB       0.536900
     14 N2          93.9510    -9.3500    11.6740 nc         1 KCB      -0.534800
     15 C11         91.6080    -9.1310    14.5220 c6         1 KCB      -0.102400
     16 C1          92.2040    -8.5520    13.2360 c6         1 KCB       0.169600
     17 C2          91.1840    -8.4960    12.1290 ca         1 KCB      -0.139300
     18 C8          90.7560    -9.6520    11.4920 ca         1 KCB      -0.036000
     19 C7          89.7950    -9.6230    10.4930 ca         1 KCB      -0.200000
     20 C6          89.2260    -8.4110    10.1120 ca         1 KCB       0.144100
     21 O1          88.2910    -8.2660     9.1590 os         1 KCB      -0.323100
     22 C9          87.8470    -9.4190     8.4730 c3         1 KCB       0.143900
     23 C4          89.6400    -7.2340    10.7480 ca         1 KCB       0.041100
     24 C5          87.9240    -5.6890    11.0760 c3         1 KCB       0.149900
     25 C3          90.6040    -7.2840    11.7530 ca         1 KCB       0.136100
     26 O2          90.9530    -6.1290    12.3830 os         1 KCB      -0.368100
     27 C10         91.9750    -5.3880    11.7270 c3         1 KCB       0.147900
     28 H1          90.7000   -12.8560    18.0930 ha         1 KCB       0.133000
     29 H2          91.7670   -12.0070    16.0490 ha         1 KCB       0.126000
     30 H3          91.1330    -9.0000    19.9190 ha         1 KCB       0.133000
     31 H4          92.2060    -8.1590    17.8710 ha         1 KCB       0.126000
     32 H5          93.2220    -8.5510    15.8120 h1         1 KCB       0.044700
     33 H6          94.3040   -10.8160    15.5770 hn         1 KCB       0.499000
     34 H7          95.6380   -10.4060    11.0460 h5         1 KCB       0.060100
     35 H8          90.9180    -8.4000    14.9440 hc         1 KCB       0.074700
     36 H9          91.0320   -10.0310    14.2920 hc         1 KCB       0.074700
     37 H10         92.5810    -7.5490    13.4460 h1         1 KCB       0.078700
     38 H11         91.1820   -10.6080    11.7710 ha         1 KCB       0.124000
     39 H12         89.5010   -10.5520    10.0240 ha         1 KCB       0.124000
     40 H13         87.1110    -9.0820     7.7480 h1         1 KCB       0.043367
     41 H14         88.6620    -9.9170     7.9410 h1         1 KCB       0.043367
     42 H15         87.3750   -10.1390     9.1460 h1         1 KCB       0.043367
     43 H16         87.6070    -4.7170    10.7020 h1         1 KCB       0.036700
     44 H17         87.1210    -6.4090    10.9010 h1         1 KCB       0.036700
     45 H18         88.0980    -5.6120    12.1520 h1         1 KCB       0.036700
     46 H19         92.1810    -4.5140    12.3410 h1         1 KCB       0.043367
     47 H20         92.8930    -5.9740    11.6280 h1         1 KCB       0.043367
     48 H21         91.6620    -5.0570    10.7350 h1         1 KCB       0.043367
     49 CL          90.1130   -11.5820    20.5710 cl         1 KCB      -0.198000
@<TRIPOS>BOND
     1     1     2 1   
     2     1    11 1   
     3     1    12 2   
     4     2    14 1   
     5     2    16 1   
     6     3    23 1   
     7     3    24 1   
     8     4     5 ar  
     9     4     7 ar  
    10     4    49 1   
    11     5     6 ar  
    12     5    28 1   
    13     6     9 ar  
    14     6    29 1   
    15     7     8 ar  
    16     7    30 1   
    17     8     9 ar  
    18     8    31 1   
    19     9    10 1   
    20    10    11 1   
    21    10    15 1   
    22    10    32 1   
    23    11    33 1   
    24    12    13 1   
    25    13    14 2   
    26    13    34 1   
    27    15    16 1   
    28    15    35 1   
    29    15    36 1   
    30    16    17 1   
    31    16    37 1   
    32    17    18 ar  
    33    17    25 ar  
    34    18    19 ar  
    35    18    38 1   
    36    19    20 ar  
    37    19    39 1   
    38    20    21 1   
    39    20    23 ar  
    40    21    22 1   
    41    22    40 1   
    42    22    41 1   
    43    22    42 1   
    44    23    25 ar  
    45    24    43 1   
    46    24    44 1   
    47    24    45 1   
    48    25    26 1   
    49    26    27 1   
    50    27    46 1   
    51    27    47 1   
    52    27    48 1   
@<TRIPOS>SUBSTRUCTURE
     1 KCB         1 TEMP              0 ****  ****    0 ROOT
