@<TRIPOS>MOLECULE
KCC
   21    22     1     0     0
SMALL
No Charge or Current Charge


@<TRIPOS>ATOM
      1 N1           9.7500   -41.2630   -12.6220 nu         1 KCC      -0.939100
      2 N3          11.7250   -40.0750   -12.6350 nb         1 KCC      -0.741000
      3 C4          12.9140   -39.7130   -14.7470 ca         1 KCC       0.163000
      4 C5          14.0310   -39.1490   -15.3940 ca         1 KCC      -0.052000
      5 C6          15.0040   -38.4400   -14.6710 ca         1 KCC      -0.131000
      6 C7          14.8730   -38.2850   -13.2830 ca         1 KCC      -0.086000
      7 C8          13.7680   -38.8400   -12.6180 ca         1 KCC      -0.103000
      8 C1           9.5310   -41.1500   -11.1660 c3         1 KCC       0.226100
      9 C2          10.8130   -40.7480   -13.3660 ca         1 KCC       0.578900
     10 C3          10.9430   -40.9080   -14.7810 ca         1 KCC       0.262900
     11 C9          12.7790   -39.5540   -13.3220 ca         1 KCC       0.291000
     12 N2          11.9910   -40.3940   -15.4810 nb         1 KCC      -0.600000
     13 H4           9.0510   -41.7760   -13.1620 hn         1 KCC       0.498000
     14 H7          15.8600   -38.0110   -15.1880 ha         1 KCC       0.117000
     15 H8          15.6270   -37.7360   -12.7220 ha         1 KCC       0.114000
     16 H9          13.6730   -38.7160   -11.5430 ha         1 KCC       0.129000
     17 H1           8.6030   -41.6610   -10.8760 h1         1 KCC       0.041367
     18 H3          10.3630   -41.6070   -10.6130 h1         1 KCC       0.041367
     19 H2           9.4520   -40.0960   -10.8680 h1         1 KCC       0.041367
     20 H5          10.1960   -41.4550   -15.3550 h4         1 KCC       0.021100
     21 H6          14.1410   -39.2640   -16.4690 ha         1 KCC       0.127000
@<TRIPOS>BOND
     1     1     8 1   
     2     1     9 1   
     3     1    13 1   
     4     2     9 ar  
     5     2    11 ar  
     6     3     4 ar  
     7     3    11 ar  
     8     3    12 ar  
     9     4     5 ar  
    10     4    21 1   
    11     5     6 ar  
    12     5    14 1   
    13     6     7 ar  
    14     6    15 1   
    15     7    11 ar  
    16     7    16 1   
    17     8    17 1   
    18     8    18 1   
    19     8    19 1   
    20     9    10 ar  
    21    10    12 ar  
    22    10    20 1   
@<TRIPOS>SUBSTRUCTURE
     1 KCC         1 TEMP              0 ****  ****    0 ROOT
