@<TRIPOS>MOLECULE
KCC
   21    22     1     0     0
SMALL
abcg2


@<TRIPOS>ATOM
      1 N1           9.7770   -41.2640   -12.6670 nu         1 KCC      -0.939100
      2 N3          11.7360   -40.0650   -12.6040 nb         1 KCC      -0.741000
      3 C4          12.9040   -39.7070   -14.6890 ca         1 KCC       0.163000
      4 C5          14.0010   -39.1580   -15.3730 ca         1 KCC      -0.052000
      5 C6          14.9650   -38.4630   -14.6840 ca         1 KCC      -0.131000
      6 C7          14.8520   -38.3020   -13.2920 ca         1 KCC      -0.086000
      7 C8          13.7860   -38.8300   -12.6060 ca         1 KCC      -0.103000
      8 C1           9.5610   -41.1430   -11.2490 c3         1 KCC       0.226100
      9 C2          10.8360   -40.7250   -13.2910 ca         1 KCC       0.578900
     10 C3          10.9630   -40.8880   -14.7200 ca         1 KCC       0.262900
     11 C9          12.7840   -39.5470   -13.2900 ca         1 KCC       0.291000
     12 N2          11.9530   -40.3990   -15.3830 nb         1 KCC      -0.600000
     13 H4           9.0960   -41.7610   -13.2150 hn         1 KCC       0.498000
     14 H7          15.8120   -38.0400   -15.2080 ha         1 KCC       0.117000
     15 H8          15.6160   -37.7550   -12.7550 ha         1 KCC       0.114000
     16 H9          13.6960   -38.7070   -11.5340 ha         1 KCC       0.129000
     17 H1           8.6370   -41.6560   -10.9970 h1         1 KCC       0.041367
     18 H3          10.3730   -41.5940   -10.6760 h1         1 KCC       0.041367
     19 H2           9.4710   -40.1000   -10.9400 h1         1 KCC       0.041367
     20 H5          10.2020   -41.4400   -15.2650 h4         1 KCC       0.021100
     21 H6          14.0670   -39.2960   -16.4450 ha         1 KCC       0.127000
@<TRIPOS>BOND
     1     1     8 1   
     2     1     9 1   
     3     1    13 1   
     4     2     9 ar  
     5     2    11 ar  
     6     3     4 ar  
     7     3    11 ar  
     8     3    12 ar  
     9     4     5 ar  
    10     4    21 1   
    11     5     6 ar  
    12     5    14 1   
    13     6     7 ar  
    14     6    15 1   
    15     7    11 ar  
    16     7    16 1   
    17     8    17 1   
    18     8    18 1   
    19     8    19 1   
    20     9    10 ar  
    21    10    12 ar  
    22    10    20 1   
@<TRIPOS>SUBSTRUCTURE
     1 KCC         1 TEMP              0 ****  ****    0 ROOT
