@<TRIPOS>MOLECULE
KCD
   51    53     1     0     0
SMALL
No Charge or Current Charge


@<TRIPOS>ATOM
      1 C01         14.5550    32.0480   -18.4150 c3         1 KCD      -0.100600
      2 C03         16.1460    30.4530   -17.3070 c3         1 KCD      -0.100600
      3 C05         13.6100    30.3060   -16.7240 c6         1 KCD      -0.081700
      4 C08         12.6780    28.5070   -15.1220 c6         1 KCD      -0.087900
      5 C11         11.0840    30.1220   -16.2210 c6         1 KCD      -0.087900
      6 C12         12.2580    31.0740   -16.5600 c6         1 KCD      -0.068900
      7 C14          9.9230    27.8720   -13.4310 c          1 KCD       0.615700
      8 C16          8.7460    26.9430   -13.3840 ca         1 KCD      -0.205600
      9 C17          8.3830    26.3840   -12.1480 ca         1 KCD       0.403900
     10 C19          6.6040    25.2020   -13.0750 ca         1 KCD       0.310000
     11 C20          5.5190    24.3210   -12.9270 ca         1 KCD      -0.164000
     12 C21          4.7300    23.9550   -14.0370 ca         1 KCD       0.155100
     13 C23          3.1860    22.5790   -12.6810 c3         1 KCD       0.391300
     14 C26          5.0360    24.4710   -15.3050 ca         1 KCD      -0.114000
     15 C27          6.1160    25.3510   -15.4710 ca         1 KCD      -0.059000
     16 C28          6.8980    25.7170   -14.3600 ca         1 KCD      -0.116000
     17 C29          7.9820    26.5990   -14.5200 ca         1 KCD      -0.024000
     18 C02         14.8260    31.2450   -17.1150 c3         1 KCD       0.182000
     19 O04         15.0630    32.2050   -16.0820 oh         1 KCD      -0.666000
     20 C07         13.8710    29.4410   -15.4460 c6         1 KCD      -0.068900
     21 C09         11.3650    29.3060   -14.9380 c6         1 KCD       0.106700
     22 N13         10.2440    28.3990   -14.6620 ns         1 KCD      -0.498900
     23 O15         10.5680    28.1540   -12.4310 o          1 KCD      -0.602100
     24 N18          7.3390    25.5340   -11.9930 nb         1 KCD      -0.665000
     25 O22          3.6580    23.0910   -13.9400 os         1 KCD      -0.389100
     26 F24          2.6390    23.5670   -11.9350 f          1 KCD      -0.110000
     27 F25          2.2070    21.6700   -12.8860 f          1 KCD      -0.110000
     28 H1          13.7460    32.7750   -18.2810 hc         1 KCD       0.043200
     29 H2          15.4440    32.6130   -18.7220 hc         1 KCD       0.043200
     30 H3          14.2820    31.3760   -19.2370 hc         1 KCD       0.043200
     31 H4          16.4960    30.0080   -16.3680 hc         1 KCD       0.043200
     32 H5          16.0120    29.6490   -18.0400 hc         1 KCD       0.043200
     33 H6          16.9490    31.1070   -17.6690 hc         1 KCD       0.043200
     34 H7          13.4920    29.6120   -17.5700 hc         1 KCD       0.046700
     35 H8          12.5590    27.7680   -15.9260 hc         1 KCD       0.044200
     36 H9          12.8990    27.9390   -14.2090 hc         1 KCD       0.044200
     37 H10         10.1630    30.7090   -16.0920 hc         1 KCD       0.044200
     38 H11         10.9050    29.4440   -17.0670 hc         1 KCD       0.044200
     39 H12         12.3480    31.8360   -15.7720 hc         1 KCD       0.048200
     40 H13         12.0010    31.6100   -17.4820 hc         1 KCD       0.048200
     41 H14          8.9390    26.6150   -11.2390 h4         1 KCD       0.047100
     42 H15          5.3100    23.9330   -11.9360 ha         1 KCD       0.148000
     43 H16          3.9960    22.1050   -12.1180 h3         1 KCD       0.069700
     44 H17          4.4310    24.1860   -16.1630 ha         1 KCD       0.140000
     45 H18          6.3420    25.7450   -16.4600 ha         1 KCD       0.123000
     46 H19          8.2100    26.9960   -15.5060 ha         1 KCD       0.118000
     47 H20         15.2310    31.6990   -15.2600 ho         1 KCD       0.438000
     48 H21         14.7630    28.8140   -15.5760 hc         1 KCD       0.048200
     49 H22         14.0670    30.0880   -14.5800 hc         1 KCD       0.048200
     50 H23         11.4770    29.9990   -14.0900 h1         1 KCD       0.088700
     51 H24          9.6600    28.1210   -15.4390 hn         1 KCD       0.308500
@<TRIPOS>BOND
     1     1    18 1   
     2     1    28 1   
     3     1    29 1   
     4     1    30 1   
     5     2    18 1   
     6     2    31 1   
     7     2    32 1   
     8     2    33 1   
     9     3     6 1   
    10     3    18 1   
    11     3    20 1   
    12     3    34 1   
    13     4    20 1   
    14     4    21 1   
    15     4    35 1   
    16     4    36 1   
    17     5     6 1   
    18     5    21 1   
    19     5    37 1   
    20     5    38 1   
    21     6    39 1   
    22     6    40 1   
    23     7     8 1   
    24     7    22 1   
    25     7    23 2   
    26     8     9 ar  
    27     8    17 ar  
    28     9    24 ar  
    29     9    41 1   
    30    10    11 ar  
    31    10    16 ar  
    32    10    24 ar  
    33    11    12 ar  
    34    11    42 1   
    35    12    14 ar  
    36    12    25 1   
    37    13    25 1   
    38    13    26 1   
    39    13    27 1   
    40    13    43 1   
    41    14    15 ar  
    42    14    44 1   
    43    15    16 ar  
    44    15    45 1   
    45    16    17 ar  
    46    17    46 1   
    47    18    19 1   
    48    19    47 1   
    49    20    48 1   
    50    20    49 1   
    51    21    22 1   
    52    21    50 1   
    53    22    51 1   
@<TRIPOS>SUBSTRUCTURE
     1 KCD         1 TEMP              0 ****  ****    0 ROOT
