@<TRIPOS>MOLECULE
KCD
   51    53     1     0     0
SMALL
abcg2


@<TRIPOS>ATOM
      1 C01         14.5290    32.1100   -18.2250 c3         1 KCD      -0.100600
      2 C03         16.1300    30.4570   -17.2710 c3         1 KCD      -0.100600
      3 C05         13.6520    30.2530   -16.7200 c6         1 KCD      -0.081700
      4 C08         12.7530    28.4080   -15.2120 c6         1 KCD      -0.087900
      5 C11         11.1520    30.0050   -16.2940 c6         1 KCD      -0.087900
      6 C12         12.3040    30.9710   -16.5750 c6         1 KCD      -0.068900
      7 C14          9.7460    28.0730   -13.6010 c          1 KCD       0.615700
      8 C16          8.6190    27.0900   -13.5290 ca         1 KCD      -0.205600
      9 C17          8.3210    26.5230   -12.2650 ca         1 KCD       0.403900
     10 C19          6.5430    25.3280   -13.0910 ca         1 KCD       0.310000
     11 C20          5.4680    24.4430   -12.8520 ca         1 KCD      -0.164000
     12 C21          4.6510    24.0870   -13.8940 ca         1 KCD       0.155100
     13 C23          3.4690    22.4400   -12.6650 c3         1 KCD       0.391300
     14 C26          4.8480    24.5900   -15.1990 ca         1 KCD      -0.114000
     15 C27          5.8800    25.4520   -15.4430 ca         1 KCD      -0.059000
     16 C28          6.7560    25.8440   -14.4010 ca         1 KCD      -0.116000
     17 C29          7.8260    26.7380   -14.5950 ca         1 KCD      -0.024000
     18 C02         14.8290    31.2240   -17.0190 c3         1 KCD       0.182000
     19 O04         15.0270    32.1410   -15.9180 oh         1 KCD      -0.666000
     20 C07         13.9050    29.3760   -15.4830 c6         1 KCD      -0.068900
     21 C09         11.4290    29.1540   -15.0580 c6         1 KCD       0.106700
     22 N13         10.3270    28.2350   -14.8030 ns         1 KCD      -0.498900
     23 O15         10.0940    28.6910   -12.5890 o          1 KCD      -0.602100
     24 N18          7.3410    25.6790   -12.0430 nb         1 KCD      -0.665000
     25 O22          3.5670    23.2400   -13.7700 os         1 KCD      -0.389100
     26 F24          2.9350    23.1370   -11.6150 f          1 KCD      -0.110000
     27 F25          2.5800    21.4710   -12.9740 f          1 KCD      -0.110000
     28 H1          13.7070    32.7940   -18.0190 hc         1 KCD       0.043200
     29 H2          15.4110    32.7030   -18.4760 hc         1 KCD       0.043200
     30 H3          14.2650    31.5000   -19.0900 hc         1 KCD       0.043200
     31 H4          16.4530    29.9100   -16.3850 hc         1 KCD       0.043200
     32 H5          16.0060    29.7410   -18.0870 hc         1 KCD       0.043200
     33 H6          16.9210    31.1580   -17.5440 hc         1 KCD       0.043200
     34 H7          13.5840    29.5860   -17.5880 hc         1 KCD       0.046700
     35 H8          12.6630    27.6980   -16.0420 hc         1 KCD       0.044200
     36 H9          12.9520    27.8260   -14.3090 hc         1 KCD       0.044200
     37 H10         10.2200    30.5580   -16.1570 hc         1 KCD       0.044200
     38 H11         11.0090    29.3410   -17.1550 hc         1 KCD       0.044200
     39 H12         12.3740    31.6970   -15.7580 hc         1 KCD       0.048200
     40 H13         12.0720    31.5340   -17.4790 hc         1 KCD       0.048200
     41 H14          8.9390    26.7960   -11.4180 h4         1 KCD       0.047100
     42 H15          5.3150    24.0930   -11.8410 ha         1 KCD       0.148000
     43 H16          4.4140    21.9990   -12.3490 h3         1 KCD       0.069700
     44 H17          4.1750    24.2770   -15.9850 ha         1 KCD       0.140000
     45 H18          6.0410    25.8440   -16.4400 ha         1 KCD       0.123000
     46 H19          7.9820    27.1520   -15.5840 ha         1 KCD       0.118000
     47 H20         15.3740    31.6450   -15.1670 ho         1 KCD       0.438000
     48 H21         14.8260    28.8060   -15.5970 hc         1 KCD       0.048200
     49 H22         14.0330    30.0170   -14.6040 hc         1 KCD       0.048200
     50 H23         11.4890    29.8030   -14.1840 h1         1 KCD       0.088700
     51 H24         10.0500    27.6270   -15.5590 hn         1 KCD       0.308500
@<TRIPOS>BOND
     1     1    18 1   
     2     1    28 1   
     3     1    29 1   
     4     1    30 1   
     5     2    18 1   
     6     2    31 1   
     7     2    32 1   
     8     2    33 1   
     9     3     6 1   
    10     3    18 1   
    11     3    20 1   
    12     3    34 1   
    13     4    20 1   
    14     4    21 1   
    15     4    35 1   
    16     4    36 1   
    17     5     6 1   
    18     5    21 1   
    19     5    37 1   
    20     5    38 1   
    21     6    39 1   
    22     6    40 1   
    23     7     8 1   
    24     7    22 1   
    25     7    23 2   
    26     8     9 ar  
    27     8    17 ar  
    28     9    24 ar  
    29     9    41 1   
    30    10    11 ar  
    31    10    16 ar  
    32    10    24 ar  
    33    11    12 ar  
    34    11    42 1   
    35    12    14 ar  
    36    12    25 1   
    37    13    25 1   
    38    13    26 1   
    39    13    27 1   
    40    13    43 1   
    41    14    15 ar  
    42    14    44 1   
    43    15    16 ar  
    44    15    45 1   
    45    16    17 ar  
    46    17    46 1   
    47    18    19 1   
    48    19    47 1   
    49    20    48 1   
    50    20    49 1   
    51    21    22 1   
    52    21    50 1   
    53    22    51 1   
@<TRIPOS>SUBSTRUCTURE
     1 KCD         1 TEMP              0 ****  ****    0 ROOT
