@<TRIPOS>MOLECULE
KCE
   61    64     1     0     0
SMALL
bcc


@<TRIPOS>ATOM
      1 C2          -1.2520     3.1890    10.6390 c3         1 KCE      -0.029100
      2 C5          -3.3680     0.1300     9.8820 ca         1 KCE      -0.126000
      3 C6          -4.4760     0.2790    10.7220 ca         1 KCE      -0.067300
      4 C7          -5.5870    -0.7670    10.7130 c3         1 KCE       0.001300
      5 C9          -6.7340    -0.4020    11.6560 c3         1 KCE      -0.082433
      6 C11         -4.4950     1.3990    11.5470 ca         1 KCE      -0.126000
      7 C12         -3.4590     2.3300    11.5320 ca         1 KCE      -0.127500
      8 C16         -0.9350     8.0590     7.9930 ca         1 KCE      -0.125300
      9 C19         -3.5100     8.3060     7.0670 ca         1 KCE       0.066100
     10 C22         -1.2490     7.5400     6.7290 ca         1 KCE      -0.108000
     11 N1           2.1770     4.6520     8.4130 n8         1 KCE      -0.675600
     12 N            1.0730     3.9590     8.9480 n7         1 KCE      -0.564000
     13 C13         -0.0610     4.8530     9.0660 c3         1 KCE       0.153200
     14 C1          -1.3510     4.0820     9.3930 c3         1 KCE      -0.046700
     15 C3          -2.3650     2.1800    10.6910 ca         1 KCE      -0.080300
     16 C10         -6.1500    -0.9010     9.2920 c3         1 KCE      -0.082433
     17 C8          -5.0110    -2.1170    11.1600 c3         1 KCE      -0.082433
     18 C4          -2.3400     1.0560     9.8650 ca         1 KCE      -0.127500
     19 C           -2.5430     5.0290     9.4690 c3         1 KCE      -0.094100
     20 C14          0.2810     5.9090    10.0690 cc         1 KCE       0.430800
     21 N5           0.5000     7.2000     9.7930 na         1 KCE      -0.047400
     22 N4           0.7900     7.8300    10.9220 nc         1 KCE      -0.221800
     23 N3           0.7540     6.9570    11.8490 nd         1 KCE      -0.048000
     24 N2           0.4450     5.7570    11.3620 nd         1 KCE      -0.379000
     25 C15          0.4650     7.9090     8.5250 c3         1 KCE       0.103600
     26 C21         -2.5440     7.6820     6.2960 ca         1 KCE       0.050100
     27 O1          -3.0930     7.2630     5.1330 os         1 KCE      -0.320900
     28 C20         -4.4530     7.6810     5.1460 c5         1 KCE       0.329200
     29 O           -4.6910     8.2960     6.4080 os         1 KCE      -0.316900
     30 C18         -3.2220     8.8260     8.3050 ca         1 KCE      -0.114000
     31 C17         -1.9060     8.6920     8.7570 ca         1 KCE      -0.101000
     32 H1          -0.2920     2.6690    10.6370 hc         1 KCE       0.072200
     33 H2          -1.2680     3.8090    11.5370 hc         1 KCE       0.072200
     34 H3          -3.2960    -0.7300     9.2260 ha         1 KCE       0.128000
     35 H4          -6.4020    -0.3350    12.6940 hc         1 KCE       0.034478
     36 H5          -7.1970     0.5500    11.3870 hc         1 KCE       0.034478
     37 H6          -7.5080    -1.1690    11.6110 hc         1 KCE       0.034478
     38 H7          -5.3200     1.5680    12.2260 ha         1 KCE       0.128000
     39 H8          -3.5110     3.1870    12.1930 ha         1 KCE       0.127000
     40 H9          -0.5020     7.0440     6.1210 ha         1 KCE       0.149000
     41 H10          3.0190     4.1680     8.6910 hn         1 KCE       0.342800
     42 H11          2.1520     4.6510     7.3980 hn         1 KCE       0.342800
     43 H12          0.8040     3.1790     8.3560 hn         1 KCE       0.338800
     44 H13         -0.2660     5.3590     8.1120 h1         1 KCE       0.034700
     45 H14         -1.5040     3.4250     8.5280 hc         1 KCE       0.042700
     46 H15         -6.9550    -1.6390     9.2670 hc         1 KCE       0.034478
     47 H16         -6.5560     0.0480     8.9370 hc         1 KCE       0.034478
     48 H17         -5.3890    -1.2240     8.5810 hc         1 KCE       0.034478
     49 H18         -4.6120    -2.0560    12.1740 hc         1 KCE       0.034478
     50 H19         -5.7860    -2.8860    11.1500 hc         1 KCE       0.034478
     51 H20         -4.2060    -2.4560    10.5060 hc         1 KCE       0.034478
     52 H21         -1.4990     0.9000     9.1980 ha         1 KCE       0.127000
     53 H22         -3.4770     4.4690     9.5140 hc         1 KCE       0.042033
     54 H23         -2.4960     5.6610    10.3580 hc         1 KCE       0.042033
     55 H24         -2.5940     5.6850     8.5980 hc         1 KCE       0.042033
     56 H25          1.1040     7.3770     7.8210 h1         1 KCE       0.083200
     57 H26          0.9260     8.8790     8.7100 h1         1 KCE       0.083200
     58 H27         -4.6270     8.4030     4.3440 h2         1 KCE       0.067700
     59 H28         -3.9740     9.3180     8.9060 ha         1 KCE       0.159000
     60 H29         -1.6490     9.0920     9.7300 ha         1 KCE       0.154000
     61 H30         -5.1070     6.8150     5.0290 h2         1 KCE       0.067700
@<TRIPOS>BOND
     1     1    14 1   
     2     1    15 1   
     3     1    32 1   
     4     1    33 1   
     5     2     3 ar  
     6     2    18 ar  
     7     2    34 1   
     8     3     4 1   
     9     3     6 ar  
    10     4     5 1   
    11     4    16 1   
    12     4    17 1   
    13     5    35 1   
    14     5    36 1   
    15     5    37 1   
    16     6     7 ar  
    17     6    38 1   
    18     7    15 ar  
    19     7    39 1   
    20     8    10 ar  
    21     8    25 1   
    22     8    31 ar  
    23     9    26 ar  
    24     9    29 1   
    25     9    30 ar  
    26    10    26 ar  
    27    10    40 1   
    28    11    12 1   
    29    11    41 1   
    30    11    42 1   
    31    12    13 1   
    32    12    43 1   
    33    13    14 1   
    34    13    20 1   
    35    13    44 1   
    36    14    19 1   
    37    14    45 1   
    38    15    18 ar  
    39    16    46 1   
    40    16    47 1   
    41    16    48 1   
    42    17    49 1   
    43    17    50 1   
    44    17    51 1   
    45    18    52 1   
    46    19    53 1   
    47    19    54 1   
    48    19    55 1   
    49    20    21 1   
    50    20    24 2   
    51    21    22 1   
    52    21    25 1   
    53    22    23 2   
    54    23    24 1   
    55    25    56 1   
    56    25    57 1   
    57    26    27 1   
    58    27    28 1   
    59    28    29 1   
    60    28    58 1   
    61    28    61 1   
    62    30    31 ar  
    63    30    59 1   
    64    31    60 1   
@<TRIPOS>SUBSTRUCTURE
     1 KCE         1 TEMP              0 ****  ****    0 ROOT
