@<TRIPOS>MOLECULE
KCE
   61    64     1     0     0
SMALL
No Charge or Current Charge


@<TRIPOS>ATOM
      1 C2          -1.1740     3.1560    10.5820 c3         1 KCE      -0.029100
      2 C5          -3.4050     0.1170     9.8600 ca         1 KCE      -0.108000
      3 C6          -4.5050     0.3200    10.7260 ca         1 KCE      -0.067300
      4 C7          -5.6670    -0.7100    10.7410 c3         1 KCE       0.001300
      5 C9          -6.7960    -0.3410    11.7460 c3         1 KCE      -0.082433
      6 C11         -4.4900     1.4730    11.5500 ca         1 KCE      -0.108000
      7 C12         -3.4190     2.3810    11.5040 ca         1 KCE      -0.109500
      8 C16         -1.0490     8.0810     8.0610 ca         1 KCE      -0.125300
      9 C19         -3.6620     8.1750     7.0830 ca         1 KCE       0.066100
     10 C22         -1.3170     7.7130     6.7210 ca         1 KCE      -0.090000
     11 N1           2.5680     4.5480     8.4750 n8         1 KCE      -0.786000
     12 N            1.2860     3.9310     8.8580 n7         1 KCE      -0.619200
     13 C13          0.1280     4.8590     9.0600 c3         1 KCE       0.153200
     14 C1          -1.1860     4.0420     9.3000 c3         1 KCE      -0.046700
     15 C3          -2.3350     2.1660    10.6360 ca         1 KCE      -0.080300
     16 C10         -6.2980    -0.7920     9.3250 c3         1 KCE      -0.082433
     17 C8          -5.1120    -2.1050    11.1390 c3         1 KCE      -0.082433
     18 C4          -2.3350     1.0260     9.8160 ca         1 KCE      -0.109500
     19 C           -2.4390     4.9540     9.2500 c3         1 KCE      -0.094100
     20 C14          0.4000     5.9440    10.1120 cc         1 KCE       0.430800
     21 N5           0.4890     7.2960     9.8790 na         1 KCE      -0.076700
     22 N4           0.7310     7.9580    11.0380 nc         1 KCE      -0.221800
     23 N3           0.7870     7.0250    11.9480 nd         1 KCE      -0.048000
     24 N2           0.5930     5.7760    11.4100 nd         1 KCE      -0.379000
     25 C15          0.3790     8.0130     8.5970 c3         1 KCE       0.132900
     26 C21         -2.6420     7.7700     6.2700 ca         1 KCE       0.050100
     27 O1          -3.0690     7.4530     5.0210 os         1 KCE      -0.344100
     28 C20         -4.5270     7.6250     5.1240 c5         1 KCE       0.375600
     29 O           -4.8630     8.1670     6.4510 os         1 KCE      -0.340100
     30 C18         -3.4360     8.5580     8.4090 ca         1 KCE      -0.096000
     31 C17         -2.1130     8.5090     8.8980 ca         1 KCE      -0.083000
     32 H1          -0.2320     2.5970    10.6370 hc         1 KCE       0.072200
     33 H2          -1.1930     3.7950    11.4720 hc         1 KCE       0.072200
     34 H3          -3.3700    -0.7530     9.2090 ha         1 KCE       0.110000
     35 H4          -6.4120    -0.2950    12.7720 hc         1 KCE       0.034478
     36 H5          -7.2460     0.6270    11.4960 hc         1 KCE       0.034478
     37 H6          -7.5970    -1.0910    11.7270 hc         1 KCE       0.034478
     38 H7          -5.3020     1.6900    12.2380 ha         1 KCE       0.110000
     39 H8          -3.4370     3.2590    12.1460 ha         1 KCE       0.109000
     40 H9          -0.5250     7.3860     6.0520 ha         1 KCE       0.131000
     41 H10          3.3890     4.0990     8.9160 hn         1 KCE       0.398000
     42 H11          2.7400     4.5600     7.4540 hn         1 KCE       0.398000
     43 H12          1.0190     3.1380     8.2440 hn         1 KCE       0.394000
     44 H13         -0.0300     5.3810     8.1070 h1         1 KCE       0.034700
     45 H14         -1.2780     3.3590     8.4460 hc         1 KCE       0.042700
     46 H15         -7.1460    -1.4880     9.3120 hc         1 KCE       0.034478
     47 H16         -6.6640     0.1920     9.0070 hc         1 KCE       0.034478
     48 H17         -5.5750    -1.1400     8.5780 hc         1 KCE       0.034478
     49 H18         -4.6280    -2.0610    12.1220 hc         1 KCE       0.034478
     50 H19         -5.9170    -2.8480    11.1910 hc         1 KCE       0.034478
     51 H20         -4.3740    -2.4690    10.4150 hc         1 KCE       0.034478
     52 H21         -1.5040     0.8420     9.1390 ha         1 KCE       0.109000
     53 H22         -3.3600     4.3610     9.3050 hc         1 KCE       0.042033
     54 H23         -2.4430     5.6680    10.0820 hc         1 KCE       0.042033
     55 H24         -2.4690     5.5170     8.3110 hc         1 KCE       0.042033
     56 H25          1.0320     7.5180     7.8670 h1         1 KCE       0.083200
     57 H26          0.7580     9.0350     8.7280 h1         1 KCE       0.083200
     58 H27         -4.8730     8.3150     4.3460 h2         1 KCE       0.067700
     59 H28         -4.2580     8.8840     9.0420 ha         1 KCE       0.141000
     60 H29         -1.9160     8.8020     9.9280 ha         1 KCE       0.136000
     61 H30         -5.0120     6.6490     5.0030 h2         1 KCE       0.067700
@<TRIPOS>BOND
     1     1    14 1   
     2     1    15 1   
     3     1    32 1   
     4     1    33 1   
     5     2     3 ar  
     6     2    18 ar  
     7     2    34 1   
     8     3     4 1   
     9     3     6 ar  
    10     4     5 1   
    11     4    16 1   
    12     4    17 1   
    13     5    35 1   
    14     5    36 1   
    15     5    37 1   
    16     6     7 ar  
    17     6    38 1   
    18     7    15 ar  
    19     7    39 1   
    20     8    10 ar  
    21     8    25 1   
    22     8    31 ar  
    23     9    26 ar  
    24     9    29 1   
    25     9    30 ar  
    26    10    26 ar  
    27    10    40 1   
    28    11    12 1   
    29    11    41 1   
    30    11    42 1   
    31    12    13 1   
    32    12    43 1   
    33    13    14 1   
    34    13    20 1   
    35    13    44 1   
    36    14    19 1   
    37    14    45 1   
    38    15    18 ar  
    39    16    46 1   
    40    16    47 1   
    41    16    48 1   
    42    17    49 1   
    43    17    50 1   
    44    17    51 1   
    45    18    52 1   
    46    19    53 1   
    47    19    54 1   
    48    19    55 1   
    49    20    21 1   
    50    20    24 2   
    51    21    22 1   
    52    21    25 1   
    53    22    23 2   
    54    23    24 1   
    55    25    56 1   
    56    25    57 1   
    57    26    27 1   
    58    27    28 1   
    59    28    29 1   
    60    28    58 1   
    61    28    61 1   
    62    30    31 ar  
    63    30    59 1   
    64    31    60 1   
@<TRIPOS>SUBSTRUCTURE
     1 KCE         1 TEMP              0 ****  ****    0 ROOT
