@<TRIPOS>MOLECULE
KCF
   22    23     1     0     0
SMALL
No Charge or Current Charge


@<TRIPOS>ATOM
      1 C1          90.3080    -7.6820    17.3120 cc         1 KCF       0.011100
      2 C2          89.6830    -8.9520    17.0100 cc         1 KCF      -0.161000
      3 C3          90.0490    -9.7670    15.9400 cd         1 KCF      -0.058000
      4 C4          91.3320    -7.2220    16.5090 cd         1 KCF      -0.080000
      5 C5          91.6990    -8.0620    15.4180 cd         1 KCF      -0.037000
      6 N6          91.0870    -9.2610    15.1580 na         1 KCF       0.304400
      7 N7          91.5870    -9.9030    14.0740 nd         1 KCF      -0.664100
      8 C8          92.5010    -9.0060    13.7450 cc         1 KCF       0.761200
      9 N9          92.6270    -7.8710    14.5100 nc         1 KCF      -0.442300
     10 N10         93.3480    -9.1430    12.6680 nh         1 KCF      -0.715600
     11 Br11        89.7270    -6.6650    18.7900 br         1 KCF      -0.070100
     12 C12         93.2730   -10.3380    11.7980 c3         1 KCF       0.211100
     13 C13         94.3620    -8.1150    12.3300 c3         1 KCF       0.211100
     14 H14         88.8820    -9.2790    17.6650 ha         1 KCF       0.149000
     15 H15         89.6150   -10.7220    15.6730 h4         1 KCF       0.163000
     16 H16         91.8290    -6.2760    16.6970 ha         1 KCF       0.160000
     17 H17         94.0120   -10.2970    10.9880 h1         1 KCF       0.042700
     18 H18         93.4610   -11.2480    12.3830 h1         1 KCF       0.042700
     19 H19         92.2760   -10.4170    11.3450 h1         1 KCF       0.042700
     20 H20         94.9420    -8.3960    11.4420 h1         1 KCF       0.042700
     21 H22         93.8760    -7.1510    12.1260 h1         1 KCF       0.042700
     22 H21         95.0640    -7.9810    13.1640 h1         1 KCF       0.042700
@<TRIPOS>BOND
     1     1     2 1   
     2     1     4 2   
     3     1    11 1   
     4     2     3 2   
     5     2    14 1   
     6     3     6 1   
     7     3    15 1   
     8     4     5 1   
     9     4    16 1   
    10     5     6 1   
    11     5     9 2   
    12     6     7 1   
    13     7     8 2   
    14     8     9 1   
    15     8    10 1   
    16    10    12 1   
    17    10    13 1   
    18    12    17 1   
    19    12    18 1   
    20    12    19 1   
    21    13    20 1   
    22    13    21 1   
    23    13    22 1   
@<TRIPOS>SUBSTRUCTURE
     1 KCF         1 TEMP              0 ****  ****    0 ROOT
