@<TRIPOS>MOLECULE
KCF
   22    23     1     0     0
SMALL
bcc


@<TRIPOS>ATOM
      1 C1          90.3030    -7.7540    17.2890 cc         1 KCF       0.011100
      2 C2          89.6670    -8.9760    16.9860 cc         1 KCF      -0.179000
      3 C3          90.1150    -9.7100    15.9270 cd         1 KCF      -0.025300
      4 C4          91.3590    -7.2870    16.5530 cd         1 KCF      -0.098000
      5 C5          91.7940    -8.0660    15.4690 cd         1 KCF       0.013700
      6 N6          91.1500    -9.2470    15.2010 na         1 KCF       0.203000
      7 N7          91.6970    -9.8370    14.1280 nd         1 KCF      -0.664100
      8 C8          92.6660    -8.9830    13.8000 cc         1 KCF       0.761200
      9 N9          92.7580    -7.8870    14.5820 nc         1 KCF      -0.442300
     10 N10         93.5080    -9.2160    12.7680 nh         1 KCF      -0.715600
     11 BR11        89.6660    -6.7480    18.7440 br         1 KCF      -0.070100
     12 C12         93.1950   -10.2930    11.8570 c3         1 KCF       0.211100
     13 C13         94.3070    -8.1220    12.2610 c3         1 KCF       0.211100
     14 H14         88.8370    -9.3450    17.5680 ha         1 KCF       0.167000
     15 H15         89.6860   -10.6540    15.6250 h4         1 KCF       0.181000
     16 H16         91.8620    -6.3560    16.7710 ha         1 KCF       0.178000
     17 H17         94.0700   -10.5040    11.2460 h1         1 KCF       0.042700
     18 H18         92.9430   -11.1980    12.4050 h1         1 KCF       0.042700
     19 H19         92.3610   -10.0540    11.1880 h1         1 KCF       0.042700
     20 H20         95.1160    -8.5280    11.6570 h1         1 KCF       0.042700
     21 H22         93.7310    -7.4300    11.6390 h1         1 KCF       0.042700
     22 H21         94.7470    -7.5590    13.0800 h1         1 KCF       0.042700
@<TRIPOS>BOND
     1     1     2 1   
     2     1     4 2   
     3     1    11 1   
     4     2     3 2   
     5     2    14 1   
     6     3     6 1   
     7     3    15 1   
     8     4     5 1   
     9     4    16 1   
    10     5     6 1   
    11     5     9 2   
    12     6     7 1   
    13     7     8 2   
    14     8     9 1   
    15     8    10 1   
    16    10    12 1   
    17    10    13 1   
    18    12    17 1   
    19    12    18 1   
    20    12    19 1   
    21    13    20 1   
    22    13    21 1   
    23    13    22 1   
@<TRIPOS>SUBSTRUCTURE
     1 KCF         1 TEMP              0 ****  ****    0 ROOT
