@<TRIPOS>MOLECULE
KCH
   26    27     1     0     0
SMALL
abcg2


@<TRIPOS>ATOM
      1 N01          3.5340     2.7550     0.0350 nv         1 KCH      -1.058000
      2 C02          3.1190     1.4260     0.0260 ca         1 KCH       0.206000
      3 C03          4.0470     0.3840     0.1310 ca         1 KCH      -0.129000
      4 C04          3.6270    -0.9290     0.1830 ca         1 KCH      -0.153000
      5 C05          2.2730    -1.2670     0.1370 ca         1 KCH       0.158100
      6 C06          1.3190    -0.2350     0.0280 cp         1 KCH      -0.192500
      7 C07          1.7740     1.0900    -0.0260 ca         1 KCH      -0.109000
      8 C08         -0.1280    -0.5320    -0.0350 cp         1 KCH       0.378500
      9 C09         -1.1090     0.4540    -0.1710 ca         1 KCH      -0.120000
     10 C10         -2.4480     0.1060    -0.2280 ca         1 KCH      -0.103600
     11 C11         -2.7810    -1.2420    -0.1450 ca         1 KCH      -0.130000
     12 C12         -1.7620    -2.1640    -0.0110 ca         1 KCH       0.315900
     13 N13         -0.4810    -1.8210     0.0420 nb         1 KCH      -0.761000
     14 C14         -3.5270     1.1810    -0.3790 c          1 KCH       0.714600
     15 O15         -3.1280     2.3580    -0.4240 o          1 KCH      -0.708000
     16 O16         -4.6980     0.7720    -0.4400 o          1 KCH      -0.708000
     17 O17          1.9560    -2.5700     0.1960 oh         1 KCH      -0.586100
     18 H011         4.4530     2.9020    -0.3540 hn         1 KCH       0.425000
     19 H012         2.8770     3.3940    -0.3850 hn         1 KCH       0.425000
     20 H03          5.1070     0.6040     0.1720 ha         1 KCH       0.098000
     21 H07          1.0570     1.8970    -0.1060 ha         1 KCH       0.123000
     22 H04          4.3570    -1.7250     0.2620 ha         1 KCH       0.112000
     23 H17          0.9630    -2.6230     0.1570 ho         1 KCH       0.526000
     24 H09         -0.8480     1.5000    -0.2360 ha         1 KCH       0.141000
     25 H11         -3.8110    -1.5680    -0.1840 ha         1 KCH       0.139000
     26 H12         -1.9760    -3.2240     0.0580 h4         1 KCH      -0.004900
@<TRIPOS>BOND
     1     1     2 1   
     2     1    18 1   
     3     1    19 1   
     4     2     3 ar  
     5     2     7 ar  
     6     3     4 ar  
     7     3    20 1   
     8     4     5 ar  
     9     4    22 1   
    10     5     6 ar  
    11     5    17 1   
    12     6     7 ar  
    13     6     8 1   
    14     7    21 1   
    15     8     9 ar  
    16     8    13 ar  
    17     9    10 ar  
    18     9    24 1   
    19    10    11 ar  
    20    10    14 1   
    21    11    12 ar  
    22    11    25 1   
    23    12    13 ar  
    24    12    26 1   
    25    14    15 1   
    26    14    16 1   
    27    17    23 1   
@<TRIPOS>SUBSTRUCTURE
     1 KCH         1 TEMP              0 ****  ****    0 ROOT
