@<TRIPOS>MOLECULE
KCH
   26    27     1     0     0
SMALL
No Charge or Current Charge


@<TRIPOS>ATOM
      1 N01          3.5830     2.7190     0.1910 nv         1 KCH      -1.058000
      2 C02          3.1670     1.4160     0.0940 ca         1 KCH       0.206000
      3 C03          4.1130     0.3880    -0.0260 ca         1 KCH      -0.129000
      4 C04          3.6870    -0.9470    -0.1130 ca         1 KCH      -0.153000
      5 C05          2.3190    -1.2570    -0.0860 ca         1 KCH       0.158100
      6 C06          1.3280    -0.2390     0.0180 cp         1 KCH      -0.192500
      7 C07          1.7960     1.1050     0.1170 ca         1 KCH      -0.109000
      8 C08         -0.1550    -0.5450     0.0250 cp         1 KCH       0.378500
      9 C09         -1.1340     0.4160    -0.3410 ca         1 KCH      -0.120000
     10 C10         -2.5100     0.0910    -0.3220 ca         1 KCH      -0.103600
     11 C11         -2.8480    -1.2230     0.0680 ca         1 KCH      -0.130000
     12 C12         -1.8310    -2.1290     0.4000 ca         1 KCH       0.315900
     13 N13         -0.5190    -1.8070     0.3720 nb         1 KCH      -0.761000
     14 C14         -3.5740     1.1050    -0.7060 c          1 KCH       0.714600
     15 O15         -3.2190     2.2300    -1.0300 o          1 KCH      -0.708000
     16 O16         -4.7470     0.7590    -0.6770 o          1 KCH      -0.708000
     17 O17          1.9540    -2.5620    -0.1580 oh         1 KCH      -0.586100
     18 H011         4.5710     2.9550     0.1090 hn         1 KCH       0.425000
     19 H012         2.9070     3.4820     0.2100 hn         1 KCH       0.425000
     20 H03          5.1750     0.6180    -0.0450 ha         1 KCH       0.098000
     21 H07          1.0900     1.9220     0.2300 ha         1 KCH       0.123000
     22 H04          4.4220    -1.7430    -0.1970 ha         1 KCH       0.112000
     23 H17          0.9700    -2.5400     0.0220 ho         1 KCH       0.526000
     24 H09         -0.8260     1.4070    -0.6530 ha         1 KCH       0.141000
     25 H11         -3.8830    -1.5480     0.1090 ha         1 KCH       0.139000
     26 H12         -2.0720    -3.1490     0.6940 h4         1 KCH      -0.004900
@<TRIPOS>BOND
     1     1     2 1   
     2     1    18 1   
     3     1    19 1   
     4     2     3 ar  
     5     2     7 ar  
     6     3     4 ar  
     7     3    20 1   
     8     4     5 ar  
     9     4    22 1   
    10     5     6 ar  
    11     5    17 1   
    12     6     7 ar  
    13     6     8 1   
    14     7    21 1   
    15     8     9 ar  
    16     8    13 ar  
    17     9    10 ar  
    18     9    24 1   
    19    10    11 ar  
    20    10    14 1   
    21    11    12 ar  
    22    11    25 1   
    23    12    13 ar  
    24    12    26 1   
    25    14    15 1   
    26    14    16 1   
    27    17    23 1   
@<TRIPOS>SUBSTRUCTURE
     1 KCH         1 TEMP              0 ****  ****    0 ROOT
