@<TRIPOS>MOLECULE
KCI
   53    57     1     0     0
SMALL
abcg2


@<TRIPOS>ATOM
      1 C1          11.8350    10.3380   -11.6720 c3         1 KCI      -0.098100
      2 C2          12.1330     9.1510   -12.5820 c3         1 KCI       0.290800
      3 C4          11.0690     6.9800   -13.0930 ca         1 KCI       0.276000
      4 C5           9.8930     6.2380   -13.2310 ca         1 KCI      -0.148000
      5 C6           9.9130     5.0040   -13.8660 ca         1 KCI      -0.023800
      6 C7          11.1390     4.5400   -14.3530 ca         1 KCI       0.284900
      7 C11          7.4380     4.7110   -14.4860 cc         1 KCI      -0.013400
      8 C15          7.5890     0.3430   -13.5870 cc         1 KCI      -0.103000
      9 C16          8.9200     0.6890   -13.2420 cc         1 KCI      -0.147000
     10 C17          9.3540     1.9660   -13.3780 cd         1 KCI      -0.105000
     11 C19         12.3560     9.6000   -14.0120 ca         1 KCI      -0.250300
     12 C21         13.8130    10.3110   -15.7940 ca         1 KCI      -0.238000
     13 C24         11.3100     9.8110   -14.8950 ca         1 KCI       0.406900
     14 C27         13.6270    11.2680   -20.0330 c5         1 KCI      -0.095900
     15 N3          11.0630     8.1840   -12.4430 nu         1 KCI      -0.949200
     16 N8          12.2610     5.2260   -14.2170 nb         1 KCI      -0.637000
     17 C9          12.2390     6.4050   -13.6140 ca         1 KCI       0.279900
     18 C10          8.6700     4.2690   -14.0610 cd         1 KCI      -0.136300
     19 N12          6.5340     3.7120   -14.5590 nc         1 KCI      -0.290600
     20 C13          7.1800     2.6260   -14.1740 cd         1 KCI      -0.076000
     21 C14          6.7290     1.2970   -14.0420 cd         1 KCI      -0.076000
     22 N18          8.4990     2.9170   -13.8570 na         1 KCI       0.142100
     23 C20         13.6340     9.8650   -14.5040 ca         1 KCI      -0.021000
     24 C22         12.6750    10.4860   -16.6100 ca         1 KCI       0.640900
     25 N23         11.4480    10.2330   -16.1450 nb         1 KCI      -0.753000
     26 N25         12.7750    10.9120   -17.8890 nh         1 KCI      -0.798300
     27 C26         14.0360    11.1360   -18.5710 c5         1 KCI       0.233300
     28 C28         12.2240    11.8610   -19.9490 c5         1 KCI      -0.095900
     29 C29         11.6200    11.1630   -18.7350 c5         1 KCI       0.233300
     30 H1          11.7410    10.0200   -10.6330 hc         1 KCI       0.045033
     31 H2          12.6370    11.0710   -11.7350 hc         1 KCI       0.045033
     32 H3          10.9070    10.8300   -11.9700 hc         1 KCI       0.045033
     33 H4          13.0610     8.6900   -12.2270 h1         1 KCI       0.061700
     34 H5           8.9620     6.6250   -12.8320 ha         1 KCI       0.121000
     35 H6          11.2060     3.5990   -14.8890 h4         1 KCI       0.019100
     36 H8           7.2590    -0.6810   -13.4780 ha         1 KCI       0.124000
     37 H9           9.6030    -0.0570   -12.8630 ha         1 KCI       0.131000
     38 H10         10.3520     2.2840   -13.1170 h4         1 KCI       0.152000
     39 H11         14.8070    10.5220   -16.1620 ha         1 KCI       0.122000
     40 H12         10.2870     9.6200   -14.5800 h4         1 KCI       0.008100
     41 H13         13.5910    10.2820   -20.5000 hc         1 KCI       0.054450
     42 H14         14.3230    11.8820   -20.6030 hc         1 KCI       0.054450
     43 H15         10.1480     8.5780   -12.2790 hn         1 KCI       0.470000
     44 H16         13.1900     6.9190   -13.5400 h4         1 KCI       0.022100
     45 H17          5.7040     1.0710   -14.3020 ha         1 KCI       0.143000
     46 H18         14.4990     9.7200   -13.8670 ha         1 KCI       0.111000
     47 H19         14.7300    10.3060   -18.4140 h1         1 KCI       0.050200
     48 H20         14.5290    12.0470   -18.2110 h1         1 KCI       0.050200
     49 H21         12.2790    12.9380   -19.7740 hc         1 KCI       0.054450
     50 H22         11.6340    11.7010   -20.8510 hc         1 KCI       0.054450
     51 H23         10.8780    11.7790   -18.2240 h1         1 KCI       0.050200
     52 H24         11.1250    10.2270   -19.0170 h1         1 KCI       0.050200
     53 H7           7.1890     5.7260   -14.7590 h4         1 KCI       0.227000
@<TRIPOS>BOND
     1     1     2 1   
     2     1    30 1   
     3     1    31 1   
     4     1    32 1   
     5     2    11 1   
     6     2    15 1   
     7     2    33 1   
     8     3     4 ar  
     9     3    15 1   
    10     3    17 ar  
    11     4     5 ar  
    12     4    34 1   
    13     5     6 ar  
    14     5    18 1   
    15     6    16 ar  
    16     6    35 1   
    17     7    18 2   
    18     7    19 1   
    19     7    53 1   
    20     8     9 1   
    21     8    21 2   
    22     8    36 1   
    23     9    10 2   
    24     9    37 1   
    25    10    22 1   
    26    10    38 1   
    27    11    13 ar  
    28    11    23 ar  
    29    12    23 ar  
    30    12    24 ar  
    31    12    39 1   
    32    13    25 ar  
    33    13    40 1   
    34    14    27 1   
    35    14    28 1   
    36    14    41 1   
    37    14    42 1   
    38    15    43 1   
    39    16    17 ar  
    40    17    44 1   
    41    18    22 1   
    42    19    20 2   
    43    20    21 1   
    44    20    22 1   
    45    21    45 1   
    46    23    46 1   
    47    24    25 ar  
    48    24    26 1   
    49    26    27 1   
    50    26    29 1   
    51    27    47 1   
    52    27    48 1   
    53    28    29 1   
    54    28    49 1   
    55    28    50 1   
    56    29    51 1   
    57    29    52 1   
@<TRIPOS>SUBSTRUCTURE
     1 KCI         1 TEMP              0 ****  ****    0 ROOT
