@<TRIPOS>MOLECULE
KCI
   53    57     1     0     0
SMALL
No Charge or Current Charge


@<TRIPOS>ATOM
      1 C1          11.5440    10.6420   -11.6500 c3         1 KCI      -0.098100
      2 C2          12.0250     9.4320   -12.4710 c3         1 KCI       0.290800
      3 C4          11.1220     7.0820   -12.9800 ca         1 KCI       0.276000
      4 C5           9.9500     6.3260   -13.1390 ca         1 KCI      -0.148000
      5 C6          10.0230     5.0300   -13.7000 ca         1 KCI      -0.023800
      6 C7          11.2950     4.5640   -14.1180 ca         1 KCI       0.284900
      7 C11          7.4800     4.7080   -13.8670 cc         1 KCI      -0.013400
      8 C15          7.6840     0.2650   -14.1540 cc         1 KCI      -0.103000
      9 C16          9.0620     0.5830   -13.8710 cc         1 KCI      -0.147000
     10 C17          9.5340     1.8860   -13.7390 cd         1 KCI      -0.105000
     11 C19         12.2860     9.7890   -13.9230 ca         1 KCI      -0.250300
     12 C21         13.7540    10.0270   -15.8150 ca         1 KCI      -0.238000
     13 C24         11.2430    10.2350   -14.7550 ca         1 KCI       0.406900
     14 C27         13.4430    10.7900   -20.1770 c5         1 KCI      -0.095900
     15 N3          11.0280     8.3640   -12.4020 nu         1 KCI      -0.949200
     16 N8          12.4400     5.2720   -13.9770 nb         1 KCI      -0.637000
     17 C9          12.3480     6.5010   -13.4100 ca         1 KCI       0.279900
     18 C10          8.7830     4.2400   -13.8870 cd         1 KCI      -0.136300
     19 N12          6.5490     3.7090   -14.0520 nc         1 KCI      -0.290600
     20 C13          7.2490     2.5960   -14.1290 cd         1 KCI      -0.076000
     21 C14          6.7440     1.2670   -14.2450 cd         1 KCI      -0.076000
     22 N18          8.5920     2.8770   -14.0560 na         1 KCI       0.142100
     23 C20         13.5760     9.6850   -14.4680 ca         1 KCI      -0.021000
     24 C22         12.6500    10.4610   -16.5690 ca         1 KCI       0.640900
     25 N23         11.4160    10.5680   -16.0520 nb         1 KCI      -0.753000
     26 N25         12.7590    10.8190   -17.9250 nh         1 KCI      -0.798300
     27 C26         13.9860    10.6140   -18.7360 c5         1 KCI       0.233300
     28 C28         12.4070    11.9230   -19.9750 c5         1 KCI      -0.095900
     29 C29         11.6530    11.4210   -18.7180 c5         1 KCI       0.233300
     30 H1          11.4090    10.3640   -10.5980 hc         1 KCI       0.045033
     31 H2          12.2850    11.4480   -11.6950 hc         1 KCI       0.045033
     32 H3          10.5920    11.0300   -12.0300 hc         1 KCI       0.045033
     33 H4          12.9630     9.0790   -12.0170 h1         1 KCI       0.061700
     34 H5           9.0000     6.7370   -12.8130 ha         1 KCI       0.121000
     35 H6          11.4060     3.6130   -14.6330 h4         1 KCI       0.019100
     36 H8           7.3880    -0.7780   -14.2260 ha         1 KCI       0.124000
     37 H9           9.7470    -0.2470   -13.7200 ha         1 KCI       0.131000
     38 H10         10.5370     2.1560   -13.4460 h4         1 KCI       0.152000
     39 H11         14.7410     9.9590   -16.2590 ha         1 KCI       0.122000
     40 H12         10.2280    10.3320   -14.3720 h4         1 KCI       0.008100
     41 H13         12.9660     9.8700   -20.5370 hc         1 KCI       0.054450
     42 H14         14.2320    11.0540   -20.8900 hc         1 KCI       0.054450
     43 H15         10.1050     8.6280   -12.0560 hn         1 KCI       0.470000
     44 H16         13.2880     7.0400   -13.3010 h4         1 KCI       0.022100
     45 H17          5.6850     1.0560   -14.3600 ha         1 KCI       0.143000
     46 H18         14.4190     9.3490   -13.8660 ha         1 KCI       0.111000
     47 H19         14.4260     9.6170   -18.5960 h1         1 KCI       0.050200
     48 H20         14.7470    11.3710   -18.4990 h1         1 KCI       0.050200
     49 H21         12.8960    12.8850   -19.7870 hc         1 KCI       0.054450
     50 H22         11.7420    12.0520   -20.8360 hc         1 KCI       0.054450
     51 H23         11.1540    12.2500   -18.1960 h1         1 KCI       0.050200
     52 H24         10.8980    10.6650   -18.9790 h1         1 KCI       0.050200
     53 H7           7.1400     5.7330   -13.7500 h4         1 KCI       0.227000
@<TRIPOS>BOND
     1     1     2 1   
     2     1    30 1   
     3     1    31 1   
     4     1    32 1   
     5     2    11 1   
     6     2    15 1   
     7     2    33 1   
     8     3     4 ar  
     9     3    15 1   
    10     3    17 ar  
    11     4     5 ar  
    12     4    34 1   
    13     5     6 ar  
    14     5    18 1   
    15     6    16 ar  
    16     6    35 1   
    17     7    18 2   
    18     7    19 1   
    19     7    53 1   
    20     8     9 1   
    21     8    21 2   
    22     8    36 1   
    23     9    10 2   
    24     9    37 1   
    25    10    22 1   
    26    10    38 1   
    27    11    13 ar  
    28    11    23 ar  
    29    12    23 ar  
    30    12    24 ar  
    31    12    39 1   
    32    13    25 ar  
    33    13    40 1   
    34    14    27 1   
    35    14    28 1   
    36    14    41 1   
    37    14    42 1   
    38    15    43 1   
    39    16    17 ar  
    40    17    44 1   
    41    18    22 1   
    42    19    20 2   
    43    20    21 1   
    44    20    22 1   
    45    21    45 1   
    46    23    46 1   
    47    24    25 ar  
    48    24    26 1   
    49    26    27 1   
    50    26    29 1   
    51    27    47 1   
    52    27    48 1   
    53    28    29 1   
    54    28    49 1   
    55    28    50 1   
    56    29    51 1   
    57    29    52 1   
@<TRIPOS>SUBSTRUCTURE
     1 KCI         1 TEMP              0 ****  ****    0 ROOT
