@<TRIPOS>MOLECULE
KCJ
   18    18     1     0     0
SMALL
abcg2


@<TRIPOS>ATOM
      1 C13         -1.7770     0.7610    -0.6660 cc         1 KCJ      -0.282000
      2 C15         -2.6560    -1.0890     0.5950 cc         1 KCJ       0.413300
      3 C07          2.9390    -0.0900    -0.0290 c          1 KCJ       0.723000
      4 C09          1.4740     0.0380     0.4460 c3         1 KCJ       0.025500
      5 C11          0.5580    -0.2400    -0.7700 c3         1 KCJ      -0.142700
      6 C12         -0.8870    -0.2350    -0.4000 cd         1 KCJ       0.322300
      7 N16         -1.4070    -1.2790     0.3230 nd         1 KCJ      -0.617000
      8 N17          1.2380     1.3150     1.0890 n8         1 KCJ      -0.988200
      9 S14         -3.3110     0.3810    -0.0040 ss         1 KCJ      -0.128400
     10 H1          -1.6070     1.6730    -1.2150 h4         1 KCJ       0.155000
     11 H2          -3.2680    -1.7850     1.1510 h5         1 KCJ       0.037100
     12 H17          1.2870    -0.7560     1.1770 h1         1 KCJ       0.059700
     13 H18          0.7410     0.5160    -1.5380 hc         1 KCJ       0.062200
     14 H19          0.8180    -1.2110    -1.1960 hc         1 KCJ       0.062200
     15 H36          1.6070     2.0500     0.4980 hn         1 KCJ       0.376500
     16 H3           0.2440     1.4880     1.1830 hn         1 KCJ       0.376500
     17 O08          3.5840     0.9640    -0.1860 o          1 KCJ      -0.728000
     18 OXT          3.3370    -1.2490    -0.2580 o          1 KCJ      -0.728000
@<TRIPOS>BOND
     1     1     6 2   
     2     1     9 1   
     3     1    10 1   
     4     2     7 2   
     5     2     9 1   
     6     2    11 1   
     7     3     4 1   
     8     3    17 1   
     9     3    18 1   
    10     4     5 1   
    11     4     8 1   
    12     4    12 1   
    13     5     6 1   
    14     5    13 1   
    15     5    14 1   
    16     6     7 1   
    17     8    15 1   
    18     8    16 1   
@<TRIPOS>SUBSTRUCTURE
     1 KCJ         1 TEMP              0 ****  ****    0 ROOT
