@<TRIPOS>MOLECULE
KCJ
   18    18     1     0     0
SMALL
No Charge or Current Charge


@<TRIPOS>ATOM
      1 C13         -1.8170     0.8290    -0.4840 cc         1 KCJ      -0.282000
      2 C15         -2.7030    -1.2150     0.4470 cc         1 KCJ       0.413300
      3 C07          3.0160    -0.2470    -0.0240 c          1 KCJ       0.723000
      4 C09          1.5240     0.0610     0.4180 c3         1 KCJ       0.025500
      5 C11          0.5430    -0.1240    -0.7690 c3         1 KCJ      -0.142700
      6 C12         -0.9040    -0.1930    -0.3620 cd         1 KCJ       0.322300
      7 N16         -1.4150    -1.3690     0.1660 nd         1 KCJ      -0.617000
      8 N17          1.2850     1.3980     1.0740 n8         1 KCJ      -0.988200
      9 S14         -3.3880     0.3490     0.0890 ss         1 KCJ      -0.128400
     10 H1          -1.6620     1.8260    -0.8740 h4         1 KCJ       0.155000
     11 H2          -3.3350    -1.9850     0.8710 h5         1 KCJ       0.037100
     12 H17          1.2720    -0.7090     1.1620 h1         1 KCJ       0.059700
     13 H18          0.6910     0.6830    -1.4970 hc         1 KCJ       0.062200
     14 H19          0.8050    -1.0500    -1.2950 hc         1 KCJ       0.062200
     15 H36          1.5770     2.1410     0.4270 hn         1 KCJ       0.376500
     16 H3           0.2750     1.5460     1.1860 hn         1 KCJ       0.376500
     17 O08          3.5430     0.4820    -0.8570 o          1 KCJ      -0.728000
     18 OXT          3.6070    -1.1700     0.5240 o          1 KCJ      -0.728000
@<TRIPOS>BOND
     1     1     6 2   
     2     1     9 1   
     3     1    10 1   
     4     2     7 2   
     5     2     9 1   
     6     2    11 1   
     7     3     4 1   
     8     3    17 1   
     9     3    18 1   
    10     4     5 1   
    11     4     8 1   
    12     4    12 1   
    13     5     6 1   
    14     5    13 1   
    15     5    14 1   
    16     6     7 1   
    17     8    15 1   
    18     8    16 1   
@<TRIPOS>SUBSTRUCTURE
     1 KCJ         1 TEMP              0 ****  ****    0 ROOT
