@<TRIPOS>MOLECULE
KCL
   38    41     1     0     0
SMALL
No Charge or Current Charge


@<TRIPOS>ATOM
      1 C4         -23.4470    -8.9790    75.9950 cc         1 KCL      -0.160100
      2 C14        -21.5440    -9.2120    79.1110 cc         1 KCL      -0.186000
      3 C5         -23.1470    -5.4380    75.1260 ca         1 KCL      -0.122000
      4 C6         -23.9880    -4.3800    75.5350 ca         1 KCL      -0.093000
      5 C11        -22.7460    -8.4430    79.3050 cc         1 KCL       0.568900
      6 C7         -25.1010    -4.6320    76.3750 ca         1 KCL      -0.145000
      7 C8         -25.3810    -5.9440    76.8160 ca         1 KCL      -0.062000
      8 C10        -25.2380    -8.8000    79.0970 c3         1 KCL       0.214800
      9 C12        -20.5050    -7.1470    78.7190 cd         1 KCL      -0.172000
     10 C13        -20.3690    -8.5620    78.8120 cd         1 KCL      -0.001000
     11 N1         -22.7990    -7.9200    75.3230 na         1 KCL      -0.228700
     12 N2         -23.8760    -9.1830    79.5350 nu         1 KCL      -0.915100
     13 C3         -24.5140    -8.3890    76.6650 cd         1 KCL      -0.143400
     14 N3         -22.8870    -7.1200    79.2700 nd         1 KCL      -0.531800
     15 C1         -23.4560    -6.7290    75.5750 ca         1 KCL      -0.041200
     16 C15        -21.4870    -5.1690    78.7500 cd         1 KCL       0.375800
     17 C16        -22.4960    -4.0600    78.8770 c3         1 KCL      -0.099400
     18 C2         -24.5270    -6.9690    76.3890 ca         1 KCL      -0.086800
     19 N4         -21.6870    -6.5120    78.9320 na         1 KCL       0.137000
     20 N5         -19.5780    -6.2500    78.4240 nc         1 KCL      -0.077000
     21 N6         -20.2000    -4.9920    78.4450 nc         1 KCL      -0.388700
     22 H1         -23.1000   -10.0080    75.9640 h4         1 KCL       0.207000
     23 H3         -22.2900    -5.2560    74.4830 ha         1 KCL       0.118000
     24 H4         -23.7790    -3.3650    75.2040 ha         1 KCL       0.113000
     25 H5         -25.7410    -3.8100    76.6850 ha         1 KCL       0.111000
     26 H6         -26.2290    -6.1480    77.4660 ha         1 KCL       0.111000
     27 H9         -25.4200    -7.7300    79.2740 h1         1 KCL       0.067700
     28 H10        -25.9860    -9.3500    79.6850 h1         1 KCL       0.067700
     29 H11        -19.4310    -9.0820    78.6440 ha         1 KCL       0.147000
     30 H12        -21.9690    -8.0110    74.7450 hn         1 KCL       0.353000
     31 H13        -23.6870   -10.1810    79.5860 hn         1 KCL       0.474000
     32 H14        -22.3980    -3.3480    78.0500 hc         1 KCL       0.064033
     33 H15        -23.5200    -4.4460    78.8640 hc         1 KCL       0.064033
     34 H16        -22.3530    -3.5130    79.8150 hc         1 KCL       0.064033
     35 C9         -25.4660    -9.1110    77.5940 c3         1 KCL      -0.031200
     36 H2         -21.5760   -10.2920    79.1820 ha         1 KCL       0.127000
     37 H7         -26.4980    -8.8440    77.3380 hc         1 KCL       0.049200
     38 H8         -25.3870   -10.1940    77.4420 hc         1 KCL       0.049200
@<TRIPOS>BOND
     1     1    11 1   
     2     1    13 2   
     3     1    22 1   
     4     2     5 1   
     5     2    10 2   
     6     2    36 1   
     7     3     4 ar  
     8     3    15 ar  
     9     3    23 1   
    10     4     6 ar  
    11     4    24 1   
    12     5    12 1   
    13     5    14 2   
    14     6     7 ar  
    15     6    25 1   
    16     7    18 ar  
    17     7    26 1   
    18     8    12 1   
    19     8    27 1   
    20     8    28 1   
    21     8    35 1   
    22     9    10 1   
    23     9    19 1   
    24     9    20 2   
    25    10    29 1   
    26    11    15 1   
    27    11    30 1   
    28    12    31 1   
    29    13    18 1   
    30    13    35 1   
    31    14    19 1   
    32    15    18 ar  
    33    16    17 1   
    34    16    19 1   
    35    16    21 2   
    36    17    32 1   
    37    17    33 1   
    38    17    34 1   
    39    20    21 1   
    40    35    37 1   
    41    35    38 1   
@<TRIPOS>SUBSTRUCTURE
     1 KCL         1 TEMP              0 ****  ****    0 ROOT
