@<TRIPOS>MOLECULE
KCL
   38    41     1     0     0
SMALL
abcg2


@<TRIPOS>ATOM
      1 C4         -23.5090    -8.8500    76.1440 cc         1 KCL      -0.160100
      2 C14        -21.4220    -9.2370    79.1010 cc         1 KCL      -0.186000
      3 C5         -23.1850    -5.4090    75.0890 ca         1 KCL      -0.122000
      4 C6         -24.0580    -4.3760    75.3900 ca         1 KCL      -0.093000
      5 C11        -22.6790    -8.5310    79.2370 cc         1 KCL       0.568900
      6 C7         -25.2030    -4.5950    76.1790 ca         1 KCL      -0.145000
      7 C8         -25.4950    -5.8530    76.6810 ca         1 KCL      -0.062000
      8 C10        -25.1420    -8.7770    79.1660 c3         1 KCL       0.214800
      9 C12        -20.3730    -7.1480    78.7330 cd         1 KCL      -0.172000
     10 C13        -20.2810    -8.5580    78.8470 cd         1 KCL      -0.001000
     11 N1         -22.8160    -7.8690    75.4670 na         1 KCL      -0.228700
     12 N2         -23.8030    -9.2660    79.4600 nu         1 KCL      -0.915100
     13 C3         -24.6260    -8.3160    76.7330 cd         1 KCL      -0.143400
     14 N3         -22.7800    -7.2210    79.1760 nd         1 KCL      -0.531800
     15 C1         -23.4830    -6.6750    75.5930 ca         1 KCL      -0.041200
     16 C15        -21.4430    -5.2400    78.7490 cd         1 KCL       0.375800
     17 C16        -22.5360    -4.2490    78.8570 c3         1 KCL      -0.099400
     18 C2         -24.6360    -6.9200    76.3890 ca         1 KCL      -0.086800
     19 N4         -21.6130    -6.5800    78.9140 na         1 KCL       0.137000
     20 N5         -19.4880    -6.1990    78.4720 nc         1 KCL      -0.077000
     21 N6         -20.1680    -5.0080    78.4840 nc         1 KCL      -0.388700
     22 H1         -23.1340    -9.8600    76.1760 h4         1 KCL       0.207000
     23 H3         -22.3010    -5.2410    74.4860 ha         1 KCL       0.118000
     24 H4         -23.8530    -3.3800    75.0180 ha         1 KCL       0.113000
     25 H5         -25.8590    -3.7620    76.4000 ha         1 KCL       0.111000
     26 H6         -26.3760    -6.0080    77.2940 ha         1 KCL       0.111000
     27 H9         -25.1820    -7.7190    79.4130 h1         1 KCL       0.067700
     28 H10        -25.8430    -9.3000    79.8170 h1         1 KCL       0.067700
     29 H11        -19.3270    -9.0500    78.7230 ha         1 KCL       0.147000
     30 H12        -21.9790    -8.0180    74.9280 hn         1 KCL       0.353000
     31 H13        -23.6800   -10.2640    79.3780 hn         1 KCL       0.474000
     32 H14        -22.1400    -3.2540    78.6640 hc         1 KCL       0.064033
     33 H15        -23.3260    -4.4650    78.1360 hc         1 KCL       0.064033
     34 H16        -22.9800    -4.2690    79.8550 hc         1 KCL       0.064033
     35 C9         -25.5420    -9.0040    77.6920 c3         1 KCL      -0.031200
     36 H2         -21.4260   -10.3150    79.1880 ha         1 KCL       0.127000
     37 H7         -26.5700    -8.6520    77.5670 hc         1 KCL       0.049200
     38 H8         -25.5470   -10.0800    77.5000 hc         1 KCL       0.049200
@<TRIPOS>BOND
     1     1    11 1   
     2     1    13 2   
     3     1    22 1   
     4     2     5 1   
     5     2    10 2   
     6     2    36 1   
     7     3     4 ar  
     8     3    15 ar  
     9     3    23 1   
    10     4     6 ar  
    11     4    24 1   
    12     5    12 1   
    13     5    14 2   
    14     6     7 ar  
    15     6    25 1   
    16     7    18 ar  
    17     7    26 1   
    18     8    12 1   
    19     8    27 1   
    20     8    28 1   
    21     8    35 1   
    22     9    10 1   
    23     9    19 1   
    24     9    20 2   
    25    10    29 1   
    26    11    15 1   
    27    11    30 1   
    28    12    31 1   
    29    13    18 1   
    30    13    35 1   
    31    14    19 1   
    32    15    18 ar  
    33    16    17 1   
    34    16    19 1   
    35    16    21 2   
    36    17    32 1   
    37    17    33 1   
    38    17    34 1   
    39    20    21 1   
    40    35    37 1   
    41    35    38 1   
@<TRIPOS>SUBSTRUCTURE
     1 KCL         1 TEMP              0 ****  ****    0 ROOT
