@<TRIPOS>MOLECULE
KCP
   37    38     1     0     0
SMALL
bcc


@<TRIPOS>ATOM
      1 S1           1.8280    -0.1880     1.2510 ss         1 KCP      -0.504200
      2 C2           2.3740     0.5210     2.8240 c6         1 KCP       0.116900
      3 C3           1.5040     0.1880     4.0090 c2         1 KCP      -0.308400
      4 C5           2.2240     0.4530     5.3010 c3         1 KCP       0.015100
      5 C4           0.2410    -0.2700     3.8830 ce         1 KCP       0.090800
      6 C9          -0.6630    -0.6930     5.0470 c          1 KCP       0.915800
      7 O4A         -1.8830    -0.7130     4.7850 o          1 KCP      -0.821300
      8 O4B         -0.1350    -1.0110     6.1310 o          1 KCP      -0.821300
      9 N5          -0.3960    -0.4380     2.6650 nu         1 KCP      -0.734000
     10 C6           0.0650     0.2420     1.5060 c6         1 KCP       0.373600
     11 C7          -0.7530    -0.1470     0.2750 c3         1 KCP      -0.043300
     12 C8          -2.2340     0.2810     0.4950 c          1 KCP       0.930600
     13 O9A         -2.9300    -0.5260     1.1430 o          1 KCP      -0.817300
     14 O9B         -2.5670     1.3930     0.0610 o          1 KCP      -0.817300
     15 N10         -0.1710     0.4830    -0.8840 ns         1 KCP      -0.514900
     16 C11         -0.6430     0.2580    -2.1160 c          1 KCP       0.668100
     17 O12         -1.4800    -0.5960    -2.3670 o          1 KCP      -0.608100
     18 C13         -0.0610     1.1570    -3.1980 c3         1 KCP      -0.111100
     19 C14          0.1100     0.4520    -4.4990 cc         1 KCP       0.005600
     20 C15         -0.6270     0.5870    -5.6360 cd         1 KCP      -0.170000
     21 C16         -0.1950    -0.2700    -6.6880 cd         1 KCP      -0.152000
     22 C17          0.8610    -1.0470    -6.3270 cc         1 KCP      -0.147100
     23 S19          1.3520    -0.7230    -4.7150 ss         1 KCP      -0.088800
     24 H21          2.4920     1.6030     2.7120 h1         1 KCP       0.024700
     25 H22          3.3800     0.1240     2.9900 h1         1 KCP       0.024700
     26 H3'1         2.7860     1.3890     5.2210 hc         1 KCP       0.008700
     27 H3'2         1.5620     0.5290     6.1560 hc         1 KCP       0.008700
     28 H3'3         2.9610    -0.3260     5.5180 hc         1 KCP       0.008700
     29 H5          -1.3980    -0.5510     2.7510 hn         1 KCP       0.494800
     30 H6           0.0360     1.3370     1.6260 h2         1 KCP       0.039700
     31 H7          -0.7020    -1.2330     0.1630 h1         1 KCP       0.080700
     32 H10          0.4840     1.2370    -0.7510 hn         1 KCP       0.300500
     33 H131        -0.7650     1.9810    -3.3400 hc         1 KCP       0.062200
     34 H132         0.8770     1.6080    -2.8670 hc         1 KCP       0.062200
     35 H15         -1.4580     1.2740    -5.7170 ha         1 KCP       0.148000
     36 H16         -0.6540    -0.3060    -7.6650 ha         1 KCP       0.130000
     37 H17          1.3840    -1.7810    -6.9210 h4         1 KCP       0.148000
@<TRIPOS>BOND
     1     1     2 1   
     2     1    10 1   
     3     2     3 1   
     4     2    24 1   
     5     2    25 1   
     6     3     4 1   
     7     3     5 2   
     8     4    26 1   
     9     4    27 1   
    10     4    28 1   
    11     5     6 1   
    12     5     9 1   
    13     6     7 1   
    14     6     8 1   
    15     9    10 1   
    16     9    29 1   
    17    10    11 1   
    18    10    30 1   
    19    11    12 1   
    20    11    15 1   
    21    11    31 1   
    22    12    13 1   
    23    12    14 1   
    24    15    16 1   
    25    15    32 1   
    26    16    17 2   
    27    16    18 1   
    28    18    19 1   
    29    18    33 1   
    30    18    34 1   
    31    19    20 2   
    32    19    23 1   
    33    20    21 1   
    34    20    35 1   
    35    21    22 2   
    36    21    36 1   
    37    22    23 1   
    38    22    37 1   
@<TRIPOS>SUBSTRUCTURE
     1 KCP         1 TEMP              0 ****  ****    0 ROOT
