@<TRIPOS>MOLECULE
KCP
   37    38     1     0     0
SMALL
No Charge or Current Charge


@<TRIPOS>ATOM
      1 S1           0.8550    -0.5370     0.4770 ss         1 KCP      -0.600000
      2 C2           2.1520    -0.2510     1.7400 c6         1 KCP       0.164800
      3 C3           1.7150    -0.4400     3.1870 c2         1 KCP      -0.308400
      4 C5           2.8890    -0.7020     4.1210 c3         1 KCP       0.015100
      5 C4           0.3970    -0.3790     3.5560 ce         1 KCP       0.090800
      6 C9          -0.1460    -0.5670     5.0070 c          1 KCP       0.705200
      7 O4A         -1.3570    -0.4440     5.1790 o          1 KCP      -0.716000
      8 O4B          0.6060    -0.8330     5.9370 o          1 KCP      -0.716000
      9 N5          -0.6300    -0.0840     2.6090 nu         1 KCP      -0.789200
     10 C6          -0.4150     0.5000     1.2910 c6         1 KCP       0.421500
     11 C7          -1.7310     0.5630     0.4670 c3         1 KCP      -0.043300
     12 C8          -2.7210     1.5230     1.1620 c          1 KCP       0.720000
     13 O9A         -3.5900     1.0340     1.8700 o          1 KCP      -0.712000
     14 O9B         -2.6420     2.7210     0.9240 o          1 KCP      -0.712000
     15 N10         -1.5390     0.9670    -0.9580 ns         1 KCP      -0.447900
     16 C11         -1.6000     0.1210    -2.0460 c          1 KCP       0.601100
     17 O12         -1.8710    -1.0690    -1.9450 o          1 KCP      -0.608100
     18 C13         -1.3280     0.7910    -3.4020 c3         1 KCP      -0.111100
     19 C14          0.0280     0.4710    -3.9840 cc         1 KCP      -0.139300
     20 C15          0.3140     0.0280    -5.2500 cd         1 KCP      -0.152000
     21 C16          1.7010    -0.1710    -5.4850 cd         1 KCP      -0.134000
     22 C17          2.4860     0.1210    -4.4000 cc         1 KCP      -0.274000
     23 S19          1.5060     0.6590    -3.0380 ss         1 KCP       0.201000
     24 H21          2.5170     0.7770     1.6060 h1         1 KCP       0.024700
     25 H22          2.9840    -0.9290     1.5010 h1         1 KCP       0.024700
     26 H3'1         3.8550    -0.6250     3.6050 hc         1 KCP       0.008700
     27 H3'2         2.9150     0.0250     4.9410 hc         1 KCP       0.008700
     28 H3'3         2.8340    -1.7090     4.5530 hc         1 KCP       0.008700
     29 H5          -1.5710    -0.0270     3.0120 hn         1 KCP       0.550000
     30 H6           0.0040     1.5140     1.3770 h2         1 KCP       0.039700
     31 H7          -2.1840    -0.4360     0.4870 h1         1 KCP       0.080700
     32 H10         -1.3440     1.9430    -1.1510 hn         1 KCP       0.300500
     33 H131        -2.1000     0.4550    -4.1040 hc         1 KCP       0.062200
     34 H132        -1.3990     1.8790    -3.2910 hc         1 KCP       0.062200
     35 H15         -0.4470    -0.1540    -6.0040 ha         1 KCP       0.130000
     36 H16          2.1010    -0.5190    -6.4330 ha         1 KCP       0.112000
     37 H17          3.5620     0.0630    -4.2960 h4         1 KCP       0.130000
@<TRIPOS>BOND
     1     1     2 1   
     2     1    10 1   
     3     2     3 1   
     4     2    24 1   
     5     2    25 1   
     6     3     4 1   
     7     3     5 2   
     8     4    26 1   
     9     4    27 1   
    10     4    28 1   
    11     5     6 1   
    12     5     9 1   
    13     6     7 1   
    14     6     8 1   
    15     9    10 1   
    16     9    29 1   
    17    10    11 1   
    18    10    30 1   
    19    11    12 1   
    20    11    15 1   
    21    11    31 1   
    22    12    13 1   
    23    12    14 1   
    24    15    16 1   
    25    15    32 1   
    26    16    17 2   
    27    16    18 1   
    28    18    19 1   
    29    18    33 1   
    30    18    34 1   
    31    19    20 2   
    32    19    23 1   
    33    20    21 1   
    34    20    35 1   
    35    21    22 2   
    36    21    36 1   
    37    22    23 1   
    38    22    37 1   
@<TRIPOS>SUBSTRUCTURE
     1 KCP         1 TEMP              0 ****  ****    0 ROOT
