@<TRIPOS>MOLECULE
KCQ
   26    26     1     0     0
SMALL
bcc


@<TRIPOS>ATOM
      1 OAD          2.0470     1.7320     1.1060 o          1 KCQ      -0.624500
      2 CD2          2.0940     0.6660     0.5130 c          1 KCQ       0.704500
      3 NAH          3.1390    -0.1760     0.4730 ns         1 KCQ      -0.581900
      4 CAE          2.9460    -1.3380    -0.3680 c5         1 KCQ       0.100000
      5 CD1          1.4230    -1.3970    -0.4970 c5         1 KCQ      -0.094400
      6 CG           0.9820     0.0570    -0.3290 c5         1 KCQ      -0.158700
      7 CB          -0.3910     0.2540     0.2910 c3         1 KCQ      -0.099400
      8 CA          -1.5200    -0.3600    -0.5640 c3         1 KCQ       0.061500
      9 N           -1.6110     0.1310    -1.9190 n8         1 KCQ      -0.875800
     10 C           -2.8360    -0.1540     0.1670 c          1 KCQ       0.575100
     11 O           -3.7010     0.5660    -0.2750 o          1 KCQ      -0.498100
     12 CMK         -2.9860    -0.8620     1.4870 c3         1 KCQ      -0.201100
     13 HN1         -1.6560     1.1430    -1.9300 hn         1 KCQ       0.348800
     14 HN2         -0.7790    -0.1260    -2.4350 hn         1 KCQ       0.348800
     15 HA          -1.3570    -1.4430    -0.6110 h1         1 KCQ       0.069700
     16 HMK1        -2.4780    -1.8260     1.4900 hc         1 KCQ       0.061033
     17 HMK2        -2.5370    -0.2590     2.2800 hc         1 KCQ       0.061033
     18 HMK3        -4.0370    -1.0020     1.7310 hc         1 KCQ       0.061033
     19 HB1         -0.3940    -0.1940     1.2880 hc         1 KCQ       0.064200
     20 HB2         -0.5810     1.3230     0.4220 hc         1 KCQ       0.064200
     21 HG           1.0210     0.5740    -1.2960 hc         1 KCQ       0.070700
     22 HAH          4.0310     0.0580     0.8810 hn         1 KCQ       0.330500
     23 HAE1         3.4290    -1.2060    -1.3400 h1         1 KCQ       0.046700
     24 HAE2         3.3630    -2.2320     0.0950 h1         1 KCQ       0.046700
     25 HD11         1.1090    -1.8430    -1.4400 hc         1 KCQ       0.058200
     26 HD12         1.0060    -2.0020     0.3130 hc         1 KCQ       0.058200
@<TRIPOS>BOND
     1     1     2 2   
     2     2     3 1   
     3     2     6 1   
     4     3     4 1   
     5     3    22 1   
     6     4     5 1   
     7     4    23 1   
     8     4    24 1   
     9     5     6 1   
    10     5    25 1   
    11     5    26 1   
    12     6     7 1   
    13     6    21 1   
    14     7     8 1   
    15     7    19 1   
    16     7    20 1   
    17     8     9 1   
    18     8    10 1   
    19     8    15 1   
    20     9    13 1   
    21     9    14 1   
    22    10    11 2   
    23    10    12 1   
    24    12    16 1   
    25    12    17 1   
    26    12    18 1   
@<TRIPOS>SUBSTRUCTURE
     1 KCQ         1 TEMP              0 ****  ****    0 ROOT
