@<TRIPOS>MOLECULE
KCQ
   26    26     1     0     0
SMALL
No Charge or Current Charge


@<TRIPOS>ATOM
      1 OAD          2.1750     1.7620     1.0930 o          1 KCQ      -0.549000
      2 CD2          2.1950     0.7610     0.3960 c          1 KCQ       0.562000
      3 NAH          3.2420    -0.1200     0.3770 ns         1 KCQ      -0.514900
      4 CAE          2.9950    -1.3460    -0.3770 c5         1 KCQ       0.100000
      5 CD1          1.4460    -1.4290    -0.2850 c5         1 KCQ      -0.094400
      6 CG           1.0510     0.0730    -0.3670 c5         1 KCQ      -0.158700
      7 CB          -0.3650     0.4160     0.1840 c3         1 KCQ      -0.099400
      8 CA          -1.5540    -0.2910    -0.5230 c3         1 KCQ       0.061500
      9 N           -1.6010     0.0940    -1.9750 n8         1 KCQ      -0.986200
     10 C           -2.8920    -0.0870     0.2810 c          1 KCQ       0.575100
     11 O           -3.7010     0.7940     0.0020 o          1 KCQ      -0.498100
     12 CMK         -3.1560    -1.0650     1.4280 c3         1 KCQ      -0.201100
     13 HN1         -1.8300     1.0940    -2.0540 hn         1 KCQ       0.404000
     14 HN2         -0.6570     0.0270    -2.3740 hn         1 KCQ       0.404000
     15 HA          -1.3580    -1.3720    -0.4860 h1         1 KCQ       0.069700
     16 HMK1        -3.1200    -2.0870     1.0360 hc         1 KCQ       0.061033
     17 HMK2        -2.3050    -1.0530     2.1180 hc         1 KCQ       0.061033
     18 HMK3        -4.1010    -0.8650     1.9460 hc         1 KCQ       0.061033
     19 HB1         -0.3920     0.1610     1.2510 hc         1 KCQ       0.064200
     20 HB2         -0.5240     1.5020     0.1370 hc         1 KCQ       0.064200
     21 HG           1.1350     0.3930    -1.4120 hc         1 KCQ       0.070700
     22 HAH          4.0810     0.1030     0.9010 hn         1 KCQ       0.330500
     23 HAE1         3.3320    -1.2490    -1.4180 h1         1 KCQ       0.046700
     24 HAE2         3.4810    -2.2260     0.0660 h1         1 KCQ       0.046700
     25 HD11         1.0090    -2.0380    -1.0840 hc         1 KCQ       0.058200
     26 HD12         1.1400    -1.8690     0.6720 hc         1 KCQ       0.058200
@<TRIPOS>BOND
     1     1     2 2   
     2     2     3 1   
     3     2     6 1   
     4     3     4 1   
     5     3    22 1   
     6     4     5 1   
     7     4    23 1   
     8     4    24 1   
     9     5     6 1   
    10     5    25 1   
    11     5    26 1   
    12     6     7 1   
    13     6    21 1   
    14     7     8 1   
    15     7    19 1   
    16     7    20 1   
    17     8     9 1   
    18     8    10 1   
    19     8    15 1   
    20     9    13 1   
    21     9    14 1   
    22    10    11 2   
    23    10    12 1   
    24    12    16 1   
    25    12    17 1   
    26    12    18 1   
@<TRIPOS>SUBSTRUCTURE
     1 KCQ         1 TEMP              0 ****  ****    0 ROOT
