@<TRIPOS>MOLECULE
KCR
   32    31     1     0     0
SMALL
No Charge or Current Charge


@<TRIPOS>ATOM
      1 N           -5.4750   -23.2930    -0.5930 n8         1 KCR      -0.887800
      2 CA          -6.8720   -22.8060    -0.2730 c3         1 KCR       0.011500
      3 CB          -7.6470   -22.4610    -1.5770 c3         1 KCR      -0.052400
      4 CG          -7.0410   -21.3330    -2.4550 c3         1 KCR      -0.064400
      5 CD          -7.0310   -19.9340    -1.7860 c3         1 KCR      -0.091400
      6 CE          -6.4570   -18.8080    -2.6740 c3         1 KCR       0.094000
      7 NZ          -7.2720   -18.5540    -3.8670 ns         1 KCR      -0.562900
      8 CH          -6.9950   -19.0200    -5.1310 c          1 KCR       0.670300
      9 OH          -5.9960   -19.6770    -5.3880 o          1 KCR      -0.619100
     10 CX          -8.0150   -18.6470    -6.1510 ce         1 KCR      -0.246200
     11 CY          -7.9410   -18.9880    -7.4570 c2         1 KCR      -0.103200
     12 CH3         -8.9610   -18.6210    -8.5110 c3         1 KCR      -0.067900
     13 C           -7.7600   -23.7450     0.6560 c          1 KCR       0.901600
     14 O           -7.8590   -24.9360     0.3730 o          1 KCR      -0.841800
     15 O1          -8.2230   -23.2800     1.6930 o          1 KCR      -0.841800
     16 H1          -4.9680   -23.4590     0.2830 hn         1 KCR       0.325300
     17 H2          -5.5440   -24.2220    -1.0200 hn         1 KCR       0.325300
     18 H4          -6.7480   -21.8730     0.2920 h1         1 KCR       0.033700
     19 H5          -8.6710   -22.1730    -1.3100 hc         1 KCR       0.037700
     20 H6          -7.7370   -23.3690    -2.1860 hc         1 KCR       0.037700
     21 H7          -7.6280   -21.2790    -3.3790 hc         1 KCR       0.031200
     22 H8          -6.0200   -21.6010    -2.7530 hc         1 KCR       0.031200
     23 H9          -6.4300   -19.9760    -0.8710 hc         1 KCR       0.045700
     24 H10         -8.0510   -19.6670    -1.4830 hc         1 KCR       0.045700
     25 H11         -5.4290   -19.0590    -2.9700 h1         1 KCR       0.048700
     26 H12         -6.4130   -17.8810    -2.0870 h1         1 KCR       0.048700
     27 H13         -8.1230   -18.0150    -3.7620 hn         1 KCR       0.304500
     28 H14         -8.8590   -18.0620    -5.7910 ha         1 KCR       0.121000
     29 H15         -7.0990   -19.5740    -7.8310 ha         1 KCR       0.142000
     30 H16         -8.6770   -19.0190    -9.4930 hc         1 KCR       0.041033
     31 H17         -9.9490   -19.0240    -8.2590 hc         1 KCR       0.041033
     32 H18         -9.0550   -17.5320    -8.6060 hc         1 KCR       0.041033
@<TRIPOS>BOND
     1     1     2 1   
     2     1    16 1   
     3     1    17 1   
     4     2     3 1   
     5     2    13 1   
     6     2    18 1   
     7     3     4 1   
     8     3    19 1   
     9     3    20 1   
    10     4     5 1   
    11     4    21 1   
    12     4    22 1   
    13     5     6 1   
    14     5    23 1   
    15     5    24 1   
    16     6     7 1   
    17     6    25 1   
    18     6    26 1   
    19     7     8 1   
    20     7    27 1   
    21     8     9 2   
    22     8    10 1   
    23    10    11 2   
    24    10    28 1   
    25    11    12 1   
    26    11    29 1   
    27    12    30 1   
    28    12    31 1   
    29    12    32 1   
    30    13    14 1   
    31    13    15 1   
@<TRIPOS>SUBSTRUCTURE
     1 KCR         1 TEMP              0 ****  ****    0 ROOT
