@<TRIPOS>MOLECULE
KCR
   32    31     1     0     0
SMALL
bcc


@<TRIPOS>ATOM
      1 N           -5.5300   -23.1790    -0.6350 n8         1 KCR      -0.887800
      2 CA          -6.8580   -22.7550    -0.2140 c3         1 KCR       0.011500
      3 CB          -7.7280   -22.4660    -1.4430 c3         1 KCR      -0.052400
      4 CG          -7.1650   -21.4290    -2.4120 c3         1 KCR      -0.064400
      5 CD          -7.0320   -20.0390    -1.8050 c3         1 KCR      -0.091400
      6 CE          -6.4710   -19.0000    -2.7680 c3         1 KCR       0.094000
      7 NZ          -7.3330   -18.7680    -3.9050 ns         1 KCR      -0.562900
      8 CH          -6.9760   -18.9370    -5.1910 c          1 KCR       0.670300
      9 OH          -5.8520   -19.2850    -5.5390 o          1 KCR      -0.619100
     10 CX          -8.0640   -18.6610    -6.1630 ce         1 KCR      -0.246200
     11 CY          -7.8650   -18.7500    -7.4770 c2         1 KCR      -0.103200
     12 CH3         -8.8970   -18.4860    -8.5150 c3         1 KCR      -0.067900
     13 C           -7.6120   -23.7420     0.7140 c          1 KCR       0.901600
     14 O           -7.1760   -24.9090     0.7880 o          1 KCR      -0.841800
     15 O1          -8.6160   -23.2820     1.2980 o          1 KCR      -0.841800
     16 H1          -4.9470   -23.2800     0.1870 hn         1 KCR       0.325300
     17 H2          -5.6090   -24.1210    -1.0020 hn         1 KCR       0.325300
     18 H4          -6.7410   -21.8180     0.3420 h1         1 KCR       0.033700
     19 H5          -8.7140   -22.1400    -1.1010 hc         1 KCR       0.037700
     20 H6          -7.8890   -23.4050    -1.9860 hc         1 KCR       0.037700
     21 H7          -7.8240   -21.3790    -3.2840 hc         1 KCR       0.031200
     22 H8          -6.1910   -21.7580    -2.7820 hc         1 KCR       0.031200
     23 H9          -6.3690   -20.0660    -0.9360 hc         1 KCR       0.045700
     24 H10         -8.0060   -19.7040    -1.4300 hc         1 KCR       0.045700
     25 H11         -5.5000   -19.3220    -3.1420 h1         1 KCR       0.048700
     26 H12         -6.3140   -18.0560    -2.2380 h1         1 KCR       0.048700
     27 H13         -8.2790   -18.4820    -3.7060 hn         1 KCR       0.304500
     28 H14         -9.0380   -18.3750    -5.7770 ha         1 KCR       0.121000
     29 H15         -6.8820   -19.0380    -7.8360 ha         1 KCR       0.142000
     30 H16         -9.0450   -19.3670    -9.1430 hc         1 KCR       0.041033
     31 H17         -9.8560   -18.2020    -8.0840 hc         1 KCR       0.041033
     32 H18         -8.5690   -17.6860    -9.1830 hc         1 KCR       0.041033
@<TRIPOS>BOND
     1     1     2 1   
     2     1    16 1   
     3     1    17 1   
     4     2     3 1   
     5     2    13 1   
     6     2    18 1   
     7     3     4 1   
     8     3    19 1   
     9     3    20 1   
    10     4     5 1   
    11     4    21 1   
    12     4    22 1   
    13     5     6 1   
    14     5    23 1   
    15     5    24 1   
    16     6     7 1   
    17     6    25 1   
    18     6    26 1   
    19     7     8 1   
    20     7    27 1   
    21     8     9 2   
    22     8    10 1   
    23    10    11 2   
    24    10    28 1   
    25    11    12 1   
    26    11    29 1   
    27    12    30 1   
    28    12    31 1   
    29    12    32 1   
    30    13    14 1   
    31    13    15 1   
@<TRIPOS>SUBSTRUCTURE
     1 KCR         1 TEMP              0 ****  ****    0 ROOT
