@<TRIPOS>MOLECULE
KCT
   39    44     1     0     0
SMALL
No Charge or Current Charge


@<TRIPOS>ATOM
      1 O27         -3.2310     3.2260     0.4430 o          1 KCT      -0.696000
      2 C25         -2.1560     2.6820     0.6550 c          1 KCT       0.720000
      3 O26         -1.7120     2.5460     1.7880 o          1 KCT      -0.696000
      4 C7          -1.3150     2.1940    -0.5730 c5         1 KCT      -0.028000
      5 N6          -0.1610     3.1380    -0.7280 ns         1 KCT      -0.464900
      6 C22         -0.6030     0.8890    -0.3400 ca         1 KCT       0.015700
      7 C21         -1.2080    -0.3800    -0.1910 cp         1 KCT      -0.046000
      8 C20         -2.5810    -0.8820    -0.2110 cp         1 KCT      -0.062000
      9 C8          -3.8260    -0.2510    -0.4150 ca         1 KCT      -0.022000
     10 C9          -4.9950    -1.0460    -0.3840 ca         1 KCT      -0.161000
     11 C10         -4.9190    -2.4430    -0.1600 ca         1 KCT      -0.091000
     12 C11         -3.6700    -3.0710     0.0320 ca         1 KCT      -0.165000
     13 C19         -2.5320    -2.2620    -0.0020 ca         1 KCT      -0.020200
     14 N12         -1.1750    -2.5980     0.1360 na         1 KCT      -0.235600
     15 C18         -0.3520    -1.4690     0.0150 ca         1 KCT      -0.019200
     16 C17          1.0440    -1.3050     0.0540 ca         1 KCT      -0.070200
     17 C16          1.6480    -0.0440    -0.1150 cp         1 KCT       0.013000
     18 C23          0.7680     1.0590    -0.3180 ca         1 KCT      -0.149600
     19 C5           1.0590     2.4980    -0.5570 c          1 KCT       0.585600
     20 O24          2.1410     3.0590    -0.6070 o          1 KCT      -0.614000
     21 N13          2.0820    -2.2280     0.2270 na         1 KCT      -0.234600
     22 C14          3.3360    -1.6070     0.1770 ca         1 KCT      -0.011200
     23 C15          3.1040    -0.2440    -0.0350 cp         1 KCT      -0.076000
     24 C1           4.6120    -2.1630     0.3040 ca         1 KCT      -0.167000
     25 C2           5.7140    -1.2900     0.2130 ca         1 KCT      -0.086000
     26 C3           5.5130     0.0950     0.0000 ca         1 KCT      -0.173000
     27 C4           4.2110     0.6300    -0.1250 ca         1 KCT      -0.024000
     28 H2          -1.9520     2.1550    -1.4660 h1         1 KCT       0.070700
     29 H3          -0.1960     4.1400    -0.8740 hn         1 KCT       0.318500
     30 H4          -3.8930     0.8170    -0.5990 ha         1 KCT       0.166000
     31 H5          -5.9650    -0.5790    -0.5370 ha         1 KCT       0.107000
     32 H6          -5.8300    -3.0370    -0.1410 ha         1 KCT       0.094000
     33 H7          -3.5980    -4.1430     0.1960 ha         1 KCT       0.098000
     34 H8          -0.8360    -3.5380     0.2970 hn         1 KCT       0.335000
     35 H9           1.9470    -3.2220     0.3710 hn         1 KCT       0.336000
     36 H10          4.7510    -3.2290     0.4690 ha         1 KCT       0.100000
     37 H11          6.7250    -1.6820     0.3070 ha         1 KCT       0.095000
     38 H12          6.3730     0.7570    -0.0670 ha         1 KCT       0.103000
     39 H13          4.0850     1.6940    -0.2850 ha         1 KCT       0.154000
@<TRIPOS>BOND
     1     1     2 1   
     2     2     3 1   
     3     2     4 1   
     4     4     5 1   
     5     4     6 1   
     6     4    28 1   
     7     5    19 1   
     8     5    29 1   
     9     6     7 ar  
    10     6    18 ar  
    11     7     8 1   
    12     7    15 ar  
    13     8     9 ar  
    14     8    13 ar  
    15     9    10 ar  
    16     9    30 1   
    17    10    11 ar  
    18    10    31 1   
    19    11    12 ar  
    20    11    32 1   
    21    12    13 ar  
    22    12    33 1   
    23    13    14 1   
    24    14    15 1   
    25    14    34 1   
    26    15    16 ar  
    27    16    17 ar  
    28    16    21 1   
    29    17    18 ar  
    30    17    23 1   
    31    18    19 1   
    32    19    20 2   
    33    21    22 1   
    34    21    35 1   
    35    22    23 ar  
    36    22    24 ar  
    37    23    27 ar  
    38    24    25 ar  
    39    24    36 1   
    40    25    26 ar  
    41    25    37 1   
    42    26    27 ar  
    43    26    38 1   
    44    27    39 1   
@<TRIPOS>SUBSTRUCTURE
     1 KCT         1 TEMP              0 ****  ****    0 ROOT
