@<TRIPOS>MOLECULE
KCT
   39    44     1     0     0
SMALL
abcg2


@<TRIPOS>ATOM
      1 O27         -3.2440     2.7940     0.6620 o          1 KCT      -0.696000
      2 C25         -2.0050     2.7300     0.7210 c          1 KCT       0.720000
      3 O26         -1.2640     2.9800     1.6820 o          1 KCT      -0.696000
      4 C7          -1.2760     2.2650    -0.5880 c5         1 KCT      -0.028000
      5 N6          -0.1320     3.0960    -0.8670 ns         1 KCT      -0.464900
      6 C22         -0.6270     0.9310    -0.3810 ca         1 KCT       0.015700
      7 C21         -1.2100    -0.3320    -0.2190 cp         1 KCT      -0.046000
      8 C20         -2.5550    -0.8500    -0.2310 cp         1 KCT      -0.062000
      9 C8          -3.8200    -0.2800    -0.3900 ca         1 KCT      -0.022000
     10 C9          -4.9320    -1.1020    -0.3660 ca         1 KCT      -0.161000
     11 C10         -4.8040    -2.4840    -0.1750 ca         1 KCT      -0.091000
     12 C11         -3.5650    -3.0750    -0.0060 ca         1 KCT      -0.165000
     13 C19         -2.4490    -2.2440    -0.0380 ca         1 KCT      -0.020200
     14 N12         -1.1250    -2.5710     0.0940 na         1 KCT      -0.235600
     15 C18         -0.3680    -1.4410    -0.0150 ca         1 KCT      -0.019200
     16 C17          1.0190    -1.2840     0.0330 ca         1 KCT      -0.070200
     17 C16          1.6010    -0.0160    -0.1360 cp         1 KCT       0.013000
     18 C23          0.7460     1.0830    -0.3520 ca         1 KCT      -0.149600
     19 C5           1.0540     2.5020    -0.6050 c          1 KCT       0.585600
     20 O24          2.1460     3.0580    -0.6090 o          1 KCT      -0.614000
     21 N13          1.9990    -2.2200     0.2230 na         1 KCT      -0.234600
     22 C14          3.2180    -1.6040     0.1850 ca         1 KCT      -0.011200
     23 C15          3.0250    -0.2210    -0.0370 cp         1 KCT      -0.076000
     24 C1           4.4850    -2.1630     0.3340 ca         1 KCT      -0.167000
     25 C2           5.5720    -1.3130     0.2580 ca         1 KCT      -0.086000
     26 C3           5.4050     0.0620     0.0390 ca         1 KCT      -0.173000
     27 C4           4.1460     0.6120    -0.1080 ca         1 KCT      -0.024000
     28 H2          -1.9770     2.2580    -1.4280 h1         1 KCT       0.070700
     29 H3          -0.2110     4.1000    -0.9050 hn         1 KCT       0.318500
     30 H4          -3.9310     0.7890    -0.5070 ha         1 KCT       0.166000
     31 H5          -5.9180    -0.6730    -0.4900 ha         1 KCT       0.107000
     32 H6          -5.6910    -3.1040    -0.1560 ha         1 KCT       0.094000
     33 H7          -3.4660    -4.1420     0.1410 ha         1 KCT       0.098000
     34 H8          -0.7770    -3.5020     0.2530 hn         1 KCT       0.335000
     35 H9           1.8570    -3.2080     0.3490 hn         1 KCT       0.336000
     36 H10          4.6130    -3.2250     0.5020 ha         1 KCT       0.100000
     37 H11          6.5690    -1.7170     0.3720 ha         1 KCT       0.095000
     38 H12          6.2760     0.7010    -0.0150 ha         1 KCT       0.103000
     39 H13          4.0230     1.6720    -0.2730 ha         1 KCT       0.154000
@<TRIPOS>BOND
     1     1     2 1   
     2     2     3 1   
     3     2     4 1   
     4     4     5 1   
     5     4     6 1   
     6     4    28 1   
     7     5    19 1   
     8     5    29 1   
     9     6     7 ar  
    10     6    18 ar  
    11     7     8 1   
    12     7    15 ar  
    13     8     9 ar  
    14     8    13 ar  
    15     9    10 ar  
    16     9    30 1   
    17    10    11 ar  
    18    10    31 1   
    19    11    12 ar  
    20    11    32 1   
    21    12    13 ar  
    22    12    33 1   
    23    13    14 1   
    24    14    15 1   
    25    14    34 1   
    26    15    16 ar  
    27    16    17 ar  
    28    16    21 1   
    29    17    18 ar  
    30    17    23 1   
    31    18    19 1   
    32    19    20 2   
    33    21    22 1   
    34    21    35 1   
    35    22    23 ar  
    36    22    24 ar  
    37    23    27 ar  
    38    24    25 ar  
    39    24    36 1   
    40    25    26 ar  
    41    25    37 1   
    42    26    27 ar  
    43    26    38 1   
    44    27    39 1   
@<TRIPOS>SUBSTRUCTURE
     1 KCT         1 TEMP              0 ****  ****    0 ROOT
