@<TRIPOS>MOLECULE
KCX
   25    24     1     0     0
SMALL
abcg2


@<TRIPOS>ATOM
      1 N           28.3700    43.4430    28.4280 n8         1 KCX      -1.003200
      2 CA          28.1750    43.3150    29.8670 c3         1 KCX       0.009500
      3 CB          28.9720    42.1300    30.4130 c3         1 KCX      -0.040400
      4 CG          30.4860    42.2920    30.3060 c3         1 KCX      -0.073400
      5 CD          31.2780    41.2540    31.0990 c3         1 KCX      -0.104400
      6 CE          31.0200    41.2930    32.6100 c3         1 KCX       0.122000
      7 NZ          31.1450    42.5930    33.2210 ns         1 KCX      -0.549900
      8 C           28.4500    44.6000    30.6980 c          1 KCX       0.695000
      9 O           28.7330    45.6410    30.0750 o          1 KCX      -0.734500
     10 CX          32.4010    43.2170    33.3690 c          1 KCX       0.722000
     11 OXT         28.3390    44.4840    31.9400 o          1 KCX      -0.734500
     12 OQ1         33.4080    42.4770    33.3650 o          1 KCX      -0.765500
     13 OQ2         32.3770    44.4580    33.5310 o          1 KCX      -0.765500
     14 H           27.7910    44.2050    28.0960 hn         1 KCX       0.373500
     15 HN2         29.3150    43.7680    28.2580 hn         1 KCX       0.373500
     16 HA          27.1140    43.0750    30.0200 h1         1 KCX       0.018700
     17 HB2         28.6840    41.9910    31.4550 hc         1 KCX       0.020700
     18 HB3         28.6700    41.2180    29.8870 hc         1 KCX       0.020700
     19 HG2         30.7910    42.2380    29.2570 hc         1 KCX       0.041700
     20 HG3         30.7790    43.2900    30.6480 hc         1 KCX       0.041700
     21 HD2         31.0470    40.2490    30.7300 hc         1 KCX       0.012200
     22 HD3         32.3450    41.4090    30.9190 hc         1 KCX       0.012200
     23 HE2         30.0130    40.9200    32.8170 h1         1 KCX       0.006200
     24 HE3         31.7000    40.5980    33.1030 h1         1 KCX       0.006200
     25 HZ          30.3990    43.2310    32.9810 hn         1 KCX       0.293500
@<TRIPOS>BOND
     1     1     2 1   
     2     1    14 1   
     3     1    15 1   
     4     2     3 1   
     5     2     8 1   
     6     2    16 1   
     7     3     4 1   
     8     3    17 1   
     9     3    18 1   
    10     4     5 1   
    11     4    19 1   
    12     4    20 1   
    13     5     6 1   
    14     5    21 1   
    15     5    22 1   
    16     6     7 1   
    17     6    23 1   
    18     6    24 1   
    19     7    10 1   
    20     7    25 1   
    21     8     9 1   
    22     8    11 1   
    23    10    12 1   
    24    10    13 1   
@<TRIPOS>SUBSTRUCTURE
     1 KCX         1 TEMP              0 ****  ****    0 ROOT
