@<TRIPOS>MOLECULE
KCX
   25    24     1     0     0
SMALL
No Charge or Current Charge


@<TRIPOS>ATOM
      1 N           28.2060    43.1580    28.2500 n8         1 KCX      -1.003200
      2 CA          28.0330    43.2850    29.7440 c3         1 KCX       0.009500
      3 CB          28.9240    42.2560    30.4960 c3         1 KCX      -0.040400
      4 CG          30.4520    42.5050    30.3920 c3         1 KCX      -0.073400
      5 CD          31.3210    41.4120    31.0660 c3         1 KCX      -0.104400
      6 CE          31.1430    41.2740    32.5980 c3         1 KCX       0.122000
      7 NZ          31.4680    42.4980    33.3340 ns         1 KCX      -0.549900
      8 C           28.1880    44.7400    30.3640 c          1 KCX       0.695000
      9 O           28.8970    45.5530    29.7820 o          1 KCX      -0.734500
     10 CX          32.7170    42.9230    33.6740 c          1 KCX       0.722000
     11 OXT         27.4840    45.0380    31.3190 o          1 KCX      -0.734500
     12 OQ1         33.6830    42.2350    33.4020 o          1 KCX      -0.765500
     13 OQ2         32.7810    43.9810    34.2650 o          1 KCX      -0.765500
     14 H           27.5540    43.8030    27.7880 hn         1 KCX       0.373500
     15 HN2         29.1240    43.5460    28.0060 hn         1 KCX       0.373500
     16 HA          26.9930    42.9900    29.9410 h1         1 KCX       0.018700
     17 HB2         28.6310    42.2610    31.5530 hc         1 KCX       0.020700
     18 HB3         28.6990    41.2490    30.1210 hc         1 KCX       0.020700
     19 HG2         30.7360    42.5570    29.3340 hc         1 KCX       0.041700
     20 HG3         30.6970    43.4810    30.8270 hc         1 KCX       0.041700
     21 HD2         31.0980    40.4440    30.6010 hc         1 KCX       0.012200
     22 HD3         32.3760    41.6200    30.8490 hc         1 KCX       0.012200
     23 HE2         30.1040    41.0040    32.8260 h1         1 KCX       0.006200
     24 HE3         31.7790    40.4590    32.9660 h1         1 KCX       0.006200
     25 HZ          30.7130    43.1160    33.5960 hn         1 KCX       0.293500
@<TRIPOS>BOND
     1     1     2 1   
     2     1    14 1   
     3     1    15 1   
     4     2     3 1   
     5     2     8 1   
     6     2    16 1   
     7     3     4 1   
     8     3    17 1   
     9     3    18 1   
    10     4     5 1   
    11     4    19 1   
    12     4    20 1   
    13     5     6 1   
    14     5    21 1   
    15     5    22 1   
    16     6     7 1   
    17     6    23 1   
    18     6    24 1   
    19     7    10 1   
    20     7    25 1   
    21     8     9 1   
    22     8    11 1   
    23    10    12 1   
    24    10    13 1   
@<TRIPOS>SUBSTRUCTURE
     1 KCX         1 TEMP              0 ****  ****    0 ROOT
