@<TRIPOS>MOLECULE
KCY
   16    15     1     0     0
SMALL
abcg2


@<TRIPOS>ATOM
      1 C            0.6570    18.6950     4.3130 c          1 KCY       0.724000
      2 N            2.6280    18.9130     5.7690 n8         1 KCY      -0.984200
      3 O           -0.3950    18.0380     4.1810 o          1 KCY      -0.732000
      4 CA           1.8500    17.9720     4.9780 c3         1 KCY       0.018500
      5 CB           2.6930    17.2650     3.8990 c3         1 KCY      -0.086400
      6 SD           3.1300    15.2880     2.0670 sh         1 KCY      -0.543800
      7 CG           1.9540    16.1550     3.1660 c3         1 KCY       0.130600
      8 OXT          0.8630    19.8620     3.9230 o          1 KCY      -0.732000
      9 HN           3.5280    18.5100     6.0030 hn         1 KCY       0.377500
     10 HA           1.4560    17.2000     5.6480 h1         1 KCY       0.044700
     11 HB           3.5770    16.8410     4.3880 hc         1 KCY       0.029700
     12 HBA          3.0580    18.0090     3.1840 hc         1 KCY       0.029700
     13 HG           1.5370    15.4420     3.8770 h1         1 KCY       0.072200
     14 HGA          1.1380    16.5520     2.5670 h1         1 KCY       0.072200
     15 HNA          2.8150    19.7240     5.1910 hn         1 KCY       0.377500
     16 HSD          2.2660    14.4280     1.5150 hs         1 KCY       0.202800
@<TRIPOS>BOND
     1     1     3 1   
     2     1     4 1   
     3     1     8 1   
     4     2     4 1   
     5     2     9 1   
     6     2    15 1   
     7     4     5 1   
     8     4    10 1   
     9     5     7 1   
    10     5    11 1   
    11     5    12 1   
    12     6     7 1   
    13     6    16 1   
    14     7    13 1   
    15     7    14 1   
@<TRIPOS>SUBSTRUCTURE
     1 KCY         1 TEMP              0 ****  ****    0 ROOT
