@<TRIPOS>MOLECULE
KCY
   16    15     1     0     0
SMALL
No Charge or Current Charge


@<TRIPOS>ATOM
      1 C            0.5480    18.6340     4.2660 c          1 KCY       0.724000
      2 N            2.6560    18.9380     5.8110 n8         1 KCY      -0.984200
      3 O           -0.5520    18.1730     4.5410 o          1 KCY      -0.732000
      4 CA           1.8250    18.0040     4.9690 c3         1 KCY       0.018500
      5 CB           2.7420    17.2790     3.9490 c3         1 KCY      -0.086400
      6 SD           3.1470    15.2800     1.9700 sh         1 KCY      -0.543800
      7 CG           2.0170    16.1890     3.1290 c3         1 KCY       0.130600
      8 OXT          0.7030    19.5950     3.5220 o          1 KCY      -0.732000
      9 HN           3.5260    18.4680     6.0860 hn         1 KCY       0.377500
     10 HA           1.4440    17.2320     5.6530 h1         1 KCY       0.044700
     11 HB           3.5790    16.8120     4.4820 hc         1 KCY       0.029700
     12 HBA          3.1740    18.0130     3.2570 hc         1 KCY       0.029700
     13 HG           1.5630    15.4600     3.8130 h1         1 KCY       0.072200
     14 HGA          1.2120    16.6440     2.5360 h1         1 KCY       0.072200
     15 HNA          2.9720    19.7200     5.2230 hn         1 KCY       0.377500
     16 HSD          2.1990    14.4530     1.4610 hs         1 KCY       0.202800
@<TRIPOS>BOND
     1     1     3 1   
     2     1     4 1   
     3     1     8 1   
     4     2     4 1   
     5     2     9 1   
     6     2    15 1   
     7     4     5 1   
     8     4    10 1   
     9     5     7 1   
    10     5    11 1   
    11     5    12 1   
    12     6     7 1   
    13     6    16 1   
    14     7    13 1   
    15     7    14 1   
@<TRIPOS>SUBSTRUCTURE
     1 KCY         1 TEMP              0 ****  ****    0 ROOT
