@<TRIPOS>MOLECULE
KCZ
   41    42     1     0     0
SMALL
abcg2


@<TRIPOS>ATOM
      1 C10         -0.5380    -0.5280    -0.0770 c3         1 KCZ       0.159800
      2 C13         -3.6470     0.3150    -0.8320 ca         1 KCZ      -0.157000
      3 C15         -5.4610     0.2510     0.7570 ca         1 KCZ       0.120100
      4 C17         -4.8510    -0.8270     1.3770 ca         1 KCZ      -0.120000
      5 C20          5.1280     0.6360    -1.0850 ca         1 KCZ      -0.106500
      6 C21          6.2010     1.4350    -0.7090 ca         1 KCZ      -0.109500
      7 C14         -4.8450     0.8260    -0.3620 ca         1 KCZ       0.044100
      8 O16         -6.6330     0.7200     1.2430 oh         1 KCZ      -0.535100
      9 C18         -3.6480    -1.3330     0.8980 ca         1 KCZ      -0.100000
     10 C12         -3.0300    -0.7720    -0.2120 ca         1 KCZ      -0.080300
     11 C11         -1.7060    -1.2810    -0.7080 c3         1 KCZ      -0.030100
     12 N09          0.7290    -1.0300    -0.5680 n7         1 KCZ      -0.863400
     13 C08          1.8670    -0.3210    -0.0190 c3         1 KCZ       0.161800
     14 C2           3.1860    -0.8840    -0.5560 c3         1 KCZ      -0.014400
     15 C01          3.3940    -2.3410    -0.1450 c3         1 KCZ      -0.078100
     16 C06          4.3460    -0.0140    -0.1350 ca         1 KCZ      -0.078300
     17 C1           6.5080     1.5990     0.6340 ca         1 KCZ      -0.111000
     18 C04          5.7350     0.9570     1.5950 ca         1 KCZ      -0.109500
     19 C05          4.6670     0.1580     1.2120 ca         1 KCZ      -0.106500
     20 H1          -0.6650     0.5520    -0.2550 h1         1 KCZ       0.033200
     21 H2          -0.5680    -0.6630     1.0090 h1         1 KCZ       0.033200
     22 H3          -3.1820     0.7710    -1.7020 ha         1 KCZ       0.110000
     23 H4          -5.3280    -1.2750     2.2410 ha         1 KCZ       0.131000
     24 H5           4.8940     0.5150    -2.1370 ha         1 KCZ       0.110000
     25 H6           6.7970     1.9290    -1.4660 ha         1 KCZ       0.111000
     26 H7          -5.0030     2.2080    -1.6870 ho         1 KCZ       0.473000
     27 H8          -6.9510     1.4530     0.7030 ho         1 KCZ       0.481000
     28 H9          -3.1920    -2.1770     1.4020 ha         1 KCZ       0.119000
     29 H10         -1.6510    -1.1790    -1.7960 hc         1 KCZ       0.052700
     30 H11         -1.6040    -2.3450    -0.4840 hc         1 KCZ       0.052700
     31 H12          0.7480    -0.9320    -1.5780 hn         1 KCZ       0.402000
     32 H14          1.8270     0.7610    -0.2240 h1         1 KCZ       0.033700
     33 H15          1.8400    -0.4250     1.0710 h1         1 KCZ       0.033700
     34 H16          3.1310    -0.8440    -1.6500 hc         1 KCZ       0.045700
     35 H17          2.5560    -2.9560    -0.4700 hc         1 KCZ       0.038700
     36 H18          4.3060    -2.7450    -0.5860 hc         1 KCZ       0.038700
     37 H19          3.4770    -2.4380     0.9400 hc         1 KCZ       0.038700
     38 H20          7.3450     2.2190     0.9320 ha         1 KCZ       0.112000
     39 H21          5.9670     1.0780     2.6450 ha         1 KCZ       0.111000
     40 H22          4.0810    -0.3380     1.9770 ha         1 KCZ       0.110000
     41 O19         -5.4910     1.8750    -0.9260 oh         1 KCZ      -0.559100
@<TRIPOS>BOND
     1     1    11 1   
     2     1    12 1   
     3     1    20 1   
     4     1    21 1   
     5     2     7 ar  
     6     2    10 ar  
     7     2    22 1   
     8     3     4 ar  
     9     3     7 ar  
    10     3     8 1   
    11     4     9 ar  
    12     4    23 1   
    13     5     6 ar  
    14     5    16 ar  
    15     5    24 1   
    16     6    17 ar  
    17     6    25 1   
    18     7    41 1   
    19     8    27 1   
    20     9    10 ar  
    21     9    28 1   
    22    10    11 1   
    23    11    29 1   
    24    11    30 1   
    25    12    13 1   
    26    12    31 1   
    27    13    14 1   
    28    13    32 1   
    29    13    33 1   
    30    14    15 1   
    31    14    16 1   
    32    14    34 1   
    33    15    35 1   
    34    15    36 1   
    35    15    37 1   
    36    16    19 ar  
    37    17    18 ar  
    38    17    38 1   
    39    18    19 ar  
    40    18    39 1   
    41    19    40 1   
    42    26    41 1   
@<TRIPOS>SUBSTRUCTURE
     1 KCZ         1 TEMP              0 ****  ****    0 ROOT
