@<TRIPOS>MOLECULE
KCZ
   41    42     1     0     0
SMALL
No Charge or Current Charge


@<TRIPOS>ATOM
      1 C10         -0.5780    -0.4250    -0.0500 c3         1 KCZ       0.159800
      2 C13         -3.8010     0.3070    -0.8700 ca         1 KCZ      -0.157000
      3 C15         -5.5930     0.1830     0.7770 ca         1 KCZ       0.120100
      4 C17         -4.8990    -0.8260     1.4620 ca         1 KCZ      -0.120000
      5 C20          5.2350     0.6160    -1.0940 ca         1 KCZ      -0.106500
      6 C21          6.3460     1.3830    -0.7030 ca         1 KCZ      -0.109500
      7 C14         -5.0460     0.7530    -0.3910 ca         1 KCZ       0.044100
      8 O16         -6.8010     0.6210     1.2350 oh         1 KCZ      -0.535100
      9 C18         -3.6550    -1.2700     0.9810 ca         1 KCZ      -0.100000
     10 C12         -3.1010    -0.7070    -0.1870 ca         1 KCZ      -0.080300
     11 C11         -1.7490    -1.1880    -0.7010 c3         1 KCZ      -0.030100
     12 N09          0.7140    -0.9190    -0.5620 n7         1 KCZ      -0.863400
     13 C08          1.9080    -0.2710     0.0220 c3         1 KCZ       0.161800
     14 C2           3.2230    -0.8570    -0.5600 c3         1 KCZ      -0.014400
     15 C01          3.4240    -2.3480    -0.1970 c3         1 KCZ      -0.078100
     16 C06          4.4320    -0.0230    -0.1270 ca         1 KCZ      -0.078300
     17 C1           6.6650     1.5190     0.6580 ca         1 KCZ      -0.111000
     18 C04          5.8720     0.8860     1.6280 ca         1 KCZ      -0.109500
     19 C05          4.7610     0.1180     1.2390 ca         1 KCZ      -0.106500
     20 H1          -0.6900     0.6480    -0.2620 h1         1 KCZ       0.033200
     21 H2          -0.6320    -0.5560     1.0400 h1         1 KCZ       0.033200
     22 H3          -3.3740     0.7450    -1.7690 ha         1 KCZ       0.110000
     23 H4          -5.3230    -1.2630     2.3630 ha         1 KCZ       0.131000
     24 H5           5.0010     0.5200    -2.1520 ha         1 KCZ       0.110000
     25 H6           6.9600     1.8730    -1.4560 ha         1 KCZ       0.111000
     26 H7          -5.2000     2.0130    -1.8400 ho         1 KCZ       0.473000
     27 H8          -7.0890     1.3190     0.6030 ho         1 KCZ       0.481000
     28 H9          -3.1200    -2.0510     1.5170 ha         1 KCZ       0.119000
     29 H10         -1.6970    -1.0700    -1.7900 hc         1 KCZ       0.052700
     30 H11         -1.6330    -2.2610    -0.5020 hc         1 KCZ       0.052700
     31 H12          0.7350    -0.7690    -1.5780 hn         1 KCZ       0.402000
     32 H14          1.8850     0.8080    -0.1880 h1         1 KCZ       0.033700
     33 H15          1.9110    -0.3930     1.1130 h1         1 KCZ       0.033700
     34 H16          3.1400    -0.8050    -1.6530 hc         1 KCZ       0.045700
     35 H17          2.6150    -2.9650    -0.6040 hc         1 KCZ       0.038700
     36 H18          4.3700    -2.7180    -0.6120 hc         1 KCZ       0.038700
     37 H19          3.4480    -2.4900     0.8900 hc         1 KCZ       0.038700
     38 H20          7.5250     2.1130     0.9600 ha         1 KCZ       0.112000
     39 H21          6.1170     0.9890     2.6830 ha         1 KCZ       0.111000
     40 H22          4.1560    -0.3670     2.0010 ha         1 KCZ       0.110000
     41 O19         -5.7260     1.7390    -1.0560 oh         1 KCZ      -0.559100
@<TRIPOS>BOND
     1     1    11 1   
     2     1    12 1   
     3     1    20 1   
     4     1    21 1   
     5     2     7 ar  
     6     2    10 ar  
     7     2    22 1   
     8     3     4 ar  
     9     3     7 ar  
    10     3     8 1   
    11     4     9 ar  
    12     4    23 1   
    13     5     6 ar  
    14     5    16 ar  
    15     5    24 1   
    16     6    17 ar  
    17     6    25 1   
    18     7    41 1   
    19     8    27 1   
    20     9    10 ar  
    21     9    28 1   
    22    10    11 1   
    23    11    29 1   
    24    11    30 1   
    25    12    13 1   
    26    12    31 1   
    27    13    14 1   
    28    13    32 1   
    29    13    33 1   
    30    14    15 1   
    31    14    16 1   
    32    14    34 1   
    33    15    35 1   
    34    15    36 1   
    35    15    37 1   
    36    16    19 ar  
    37    17    18 ar  
    38    17    38 1   
    39    18    19 ar  
    40    18    39 1   
    41    19    40 1   
    42    26    41 1   
@<TRIPOS>SUBSTRUCTURE
     1 KCZ         1 TEMP              0 ****  ****    0 ROOT
