@<TRIPOS>MOLECULE
KD1
  106   109     1     0     0
SMALL
No Charge or Current Charge


@<TRIPOS>ATOM
      1 C1         -62.4280   -31.3380    -2.6880 c          1 KD1       0.719000
      2 N1         -71.3120   -38.6430     6.6770 n8         1 KD1      -1.034200
      3 O1         -61.3460   -31.7150    -2.2450 o          1 KD1      -0.733000
      4 P1         -73.1490   -35.8020     1.7910 p5         1 KD1       1.296900
      5 C2         -63.7150   -31.4350    -1.7060 c6         1 KD1       0.259000
      6 O2         -65.5630   -28.4610    -0.1440 oh         1 KD1      -0.698000
      7 C3         -63.9750   -29.9860    -1.1970 c6         1 KD1      -0.068400
      8 O3         -62.6310   -31.4960    -3.8900 o          1 KD1      -0.733000
      9 C4         -65.3080   -29.8430    -0.4190 c6         1 KD1       0.173300
     10 O4         -68.5590   -32.5170    -1.8060 oh         1 KD1      -0.788000
     11 C5         -66.4970   -30.4180    -1.2420 c6         1 KD1       0.106300
     12 C6         -66.1390   -31.8900    -1.6190 c6         1 KD1       0.103300
     13 O6         -63.5140   -32.3160    -0.5550 os         1 KD1      -0.477000
     14 C7         -67.2580   -32.6390    -2.4240 c3         1 KD1       0.207300
     15 O7         -64.9110   -31.9200    -2.4000 os         1 KD1      -0.463000
     16 C8         -66.9370   -34.1460    -2.6740 c3         1 KD1       0.135600
     17 O8         -66.7440   -29.5820    -2.4050 oh         1 KD1      -0.740000
     18 C9         -63.5880   -35.5700     5.2860 c          1 KD1       0.723000
     19 O9         -64.1580   -35.2130     6.3140 o          1 KD1      -0.711500
     20 C10        -63.2270   -34.4190     4.2050 c6         1 KD1       0.250000
     21 O10        -59.6750   -33.2120     3.3810 oh         1 KD1      -0.688000
     22 C11        -61.6980   -34.1630     4.3710 c6         1 KD1      -0.068400
     23 O11        -63.8560   -36.6830     4.8440 o          1 KD1      -0.711500
     24 C12        -61.1020   -33.2670     3.2570 c6         1 KD1       0.160300
     25 O12        -62.9870   -35.9090     0.2060 oh         1 KD1      -0.740000
     26 C13        -61.4720   -33.8140     1.8480 c6         1 KD1       0.118300
     27 O13        -63.9500   -33.1600     4.4250 os         1 KD1      -0.494000
     28 C14        -63.0190   -33.9660     1.7790 c6         1 KD1       0.140300
     29 O14        -63.4880   -34.8550     2.8330 os         1 KD1      -0.422000
     30 C15        -63.5080   -34.5680     0.4140 c3         1 KD1       0.155300
     31 O15        -60.8320   -35.0820     1.5940 oh         1 KD1      -0.753000
     32 C16        -63.1830   -33.6980    -0.8290 c3         1 KD1       0.137600
     33 C17        -67.9930   -32.0780     1.6490 c          1 KD1       0.725000
     34 O17        -68.5130   -30.9690     1.7100 o          1 KD1      -0.709000
     35 C18        -67.5540   -32.7510     3.0490 c6         1 KD1       0.266000
     36 O18        -67.8870   -31.9870     7.9300 oh         1 KD1      -0.737000
     37 C19        -66.0010   -32.7730     3.0580 c6         1 KD1      -0.099400
     38 C20        -65.4120   -33.2130     4.4250 c6         1 KD1       0.188300
     39 O20        -68.0330   -34.1200     3.2060 os         1 KD1      -0.470000
     40 C21        -66.0080   -32.3500     5.5840 c6         1 KD1       0.151300
     41 O21        -68.0340   -31.9930     4.2050 os         1 KD1      -0.464000
     42 C22        -67.5630   -32.4620     5.4990 c6         1 KD1       0.133300
     43 O22        -65.5510   -30.9730     5.5210 oh         1 KD1      -0.711000
     44 C23        -68.3170   -31.6480     6.6020 c3         1 KD1       0.167300
     45 O23        -69.0960   -36.8590     7.1910 oh         1 KD1      -0.664000
     46 C24        -69.8560   -31.8470     6.5630 c3         1 KD1       0.113600
     47 O24        -72.9770   -37.8680     4.4020 oh         1 KD1      -0.810000
     48 C25        -69.5480   -36.9830     5.8550 c6         1 KD1       0.402300
     49 O25        -71.6550   -36.1710     2.2560 os         1 KD1      -0.581400
     50 C26        -71.0540   -37.3930     5.8780 c6         1 KD1       0.073500
     51 O26        -69.4020   -35.7140     5.2140 os         1 KD1      -0.469000
     52 C27        -71.5820   -37.4830     4.4080 c6         1 KD1       0.143300
     53 O27        -73.2440   -35.9400     0.3130 o          1 KD1      -0.908167
     54 C28        -71.2880   -36.1260     3.6560 c6         1 KD1       0.190300
     55 O28        -74.0880   -36.7510     2.4420 o          1 KD1      -0.908167
     56 C29        -69.7800   -35.7350     3.8100 c6         1 KD1       0.154300
     57 O29        -73.4650   -34.4060     2.1900 o          1 KD1      -0.908167
     58 C30        -69.4680   -34.3300     3.2170 c3         1 KD1       0.176600
     59 HN1        -72.3110   -38.8580     6.5570 hn         1 KD1       0.383500
     60 HN1A       -70.8630   -39.4350     6.2020 hn         1 KD1       0.383500
     61 HO2        -66.0540   -28.1610    -0.9460 ho         1 KD1       0.448000
     62 H3         -63.1390   -29.6680    -0.5590 hc         1 KD1       0.053700
     63 H3A        -63.9750   -29.3030    -2.0570 hc         1 KD1       0.053700
     64 H4         -65.2250   -30.4100     0.5210 h1         1 KD1       0.070700
     65 HO4        -68.4450   -32.7580    -0.8270 ho         1 KD1       0.603000
     66 H5         -67.3840   -30.4300    -0.5910 h1         1 KD1       0.104700
     67 HO5        -66.9060   -35.8390    -1.6820 ho         1 KD1       0.405000
     68 H6         -65.9820   -32.4590    -0.6910 h1         1 KD1       0.092700
     69 H7         -67.3020   -32.1660    -3.4140 h1         1 KD1       0.028700
     70 H8         -65.9910   -34.2300    -3.2240 h1         1 KD1       0.006700
     71 H8A        -67.7210   -34.5720    -3.3130 h1         1 KD1       0.006700
     72 HO8        -67.4800   -30.0050    -2.9040 ho         1 KD1       0.488000
     73 HO10       -59.3680   -33.9690     2.8310 ho         1 KD1       0.412000
     74 H11        -61.5100   -33.7070     5.3520 hc         1 KD1       0.055700
     75 H11A       -61.1750   -35.1290     4.3830 hc         1 KD1       0.055700
     76 H12        -61.5280   -32.2570     3.3610 h1         1 KD1       0.050700
     77 HO12       -63.6400   -36.3920    -0.3530 ho         1 KD1       0.481000
     78 H13        -61.1600   -33.0770     1.0930 h1         1 KD1       0.036700
     79 H14        -63.4760   -32.9750     1.9080 h1         1 KD1       0.082700
     80 H15        -64.6040   -34.6070     0.4830 h1         1 KD1       0.097700
     81 HO15       -61.5420   -35.5920     1.1020 ho         1 KD1       0.525000
     82 H16        -63.7600   -34.0810    -1.6810 h1         1 KD1       0.030200
     83 H16A       -62.1170   -33.8010    -1.0690 h1         1 KD1       0.030200
     84 HO18       -68.6840   -31.7670     8.4730 ho         1 KD1       0.480000
     85 H19        -65.6750   -33.4560     2.2680 hc         1 KD1       0.067200
     86 H19A       -65.6180   -31.7780     2.7950 hc         1 KD1       0.067200
     87 HO19       -71.4370   -31.2980     7.6150 ho         1 KD1       0.424000
     88 H20        -65.7380   -34.2500     4.5960 h1         1 KD1       0.095700
     89 H21        -65.6840   -32.8030     6.5330 h1         1 KD1       0.051700
     90 H22        -67.8450   -33.5180     5.6250 h1         1 KD1       0.087700
     91 HO22       -65.8000   -30.5630     6.3790 ho         1 KD1       0.461000
     92 H23        -68.1220   -30.5830     6.4180 h1         1 KD1       0.047700
     93 HO23       -69.6580   -37.5200     7.6540 ho         1 KD1       0.436000
     94 H24        -70.0790   -32.9230     6.5390 h1         1 KD1       0.071200
     95 H24A       -70.2480   -31.4080     5.6340 h1         1 KD1       0.071200
     96 HO24       -73.4020   -37.4220     3.5860 ho         1 KD1       0.549000
     97 H27        -71.0030   -38.2660     3.8960 h1         1 KD1       0.008700
     98 H28        -71.8800   -35.3370     4.1440 h1         1 KD1       0.047700
     99 H29        -69.1610   -36.4770     3.2840 h1         1 KD1       0.061700
    100 H30        -69.9820   -33.5770     3.8280 h1         1 KD1       0.065200
    101 H30A       -69.8740   -34.2730     2.2000 h1         1 KD1       0.065200
    102 O5         -66.8550   -34.8890    -1.4450 oh         1 KD1      -0.619000
    103 O19        -70.4610   -31.2240     7.7210 oh         1 KD1      -0.719000
    104 H25        -68.9520   -37.7450     5.3270 h2         1 KD1       0.028700
    105 H26        -71.6070   -36.5810     6.3770 h1         1 KD1       0.064700
    106 O16        -68.3510   -32.8270     0.7430 o          1 KD1      -0.709000
@<TRIPOS>BOND
     1     1     3 1   
     2     1     5 1   
     3     1     8 1   
     4     2    50 1   
     5     2    59 1   
     6     2    60 1   
     7     4    49 1   
     8     4    53 1   
     9     4    55 1   
    10     4    57 1   
    11     5     7 1   
    12     5    13 1   
    13     5    15 1   
    14     6     9 1   
    15     6    61 1   
    16     7     9 1   
    17     7    62 1   
    18     7    63 1   
    19     9    11 1   
    20     9    64 1   
    21    10    14 1   
    22    10    65 1   
    23    11    12 1   
    24    11    17 1   
    25    11    66 1   
    26    12    14 1   
    27    12    15 1   
    28    12    68 1   
    29    13    32 1   
    30    14    16 1   
    31    14    69 1   
    32    16    70 1   
    33    16    71 1   
    34    16   102 1   
    35    17    72 1   
    36    18    19 1   
    37    18    20 1   
    38    18    23 1   
    39    20    22 1   
    40    20    27 1   
    41    20    29 1   
    42    21    24 1   
    43    21    73 1   
    44    22    24 1   
    45    22    74 1   
    46    22    75 1   
    47    24    26 1   
    48    24    76 1   
    49    25    30 1   
    50    25    77 1   
    51    26    28 1   
    52    26    31 1   
    53    26    78 1   
    54    27    38 1   
    55    28    29 1   
    56    28    30 1   
    57    28    79 1   
    58    30    32 1   
    59    30    80 1   
    60    31    81 1   
    61    32    82 1   
    62    32    83 1   
    63    33    34 1   
    64    33    35 1   
    65    33   106 1   
    66    35    37 1   
    67    35    39 1   
    68    35    41 1   
    69    36    44 1   
    70    36    84 1   
    71    37    38 1   
    72    37    85 1   
    73    37    86 1   
    74    38    40 1   
    75    38    88 1   
    76    39    58 1   
    77    40    42 1   
    78    40    43 1   
    79    40    89 1   
    80    41    42 1   
    81    42    44 1   
    82    42    90 1   
    83    43    91 1   
    84    44    46 1   
    85    44    92 1   
    86    45    48 1   
    87    45    93 1   
    88    46    94 1   
    89    46    95 1   
    90    46   103 1   
    91    47    52 1   
    92    47    96 1   
    93    48    50 1   
    94    48    51 1   
    95    48   104 1   
    96    49    54 1   
    97    50    52 1   
    98    50   105 1   
    99    51    56 1   
   100    52    54 1   
   101    52    97 1   
   102    54    56 1   
   103    54    98 1   
   104    56    58 1   
   105    56    99 1   
   106    58   100 1   
   107    58   101 1   
   108    67   102 1   
   109    87   103 1   
@<TRIPOS>SUBSTRUCTURE
     1 KD1         1 TEMP              0 ****  ****    0 ROOT
