@<TRIPOS>MOLECULE
KD1
  106   109     1     0     0
SMALL
abcg2


@<TRIPOS>ATOM
      1 C1         -62.4790   -31.2780    -2.5080 c          1 KD1       0.719000
      2 N1         -71.2780   -38.4490     6.8650 n8         1 KD1      -1.034200
      3 O1         -61.4080   -31.0020    -1.9160 o          1 KD1      -0.733000
      4 P1         -73.0790   -36.0580     1.7320 p5         1 KD1       1.296900
      5 C2         -63.7280   -31.3850    -1.5620 c6         1 KD1       0.259000
      6 O2         -65.6080   -28.7330     0.3120 oh         1 KD1      -0.698000
      7 C3         -64.0450   -30.0140    -0.9600 c6         1 KD1      -0.068400
      8 O3         -62.6450   -31.4450    -3.7340 o          1 KD1      -0.733000
      9 C4         -65.3520   -30.0480    -0.1870 c6         1 KD1       0.173300
     10 O4         -68.3700   -32.6050    -1.9230 oh         1 KD1      -0.788000
     11 C5         -66.4820   -30.5900    -1.0550 c6         1 KD1       0.106300
     12 C6         -66.0520   -31.9670    -1.5660 c6         1 KD1       0.103300
     13 O6         -63.4610   -32.2480    -0.4630 os         1 KD1      -0.477000
     14 C7         -67.0740   -32.6140    -2.5010 c3         1 KD1       0.207300
     15 O7         -64.8250   -31.8770    -2.3010 os         1 KD1      -0.463000
     16 C8         -66.6460   -34.0060    -2.9460 c3         1 KD1       0.135600
     17 O8         -66.7430   -29.6770    -2.1260 oh         1 KD1      -0.740000
     18 C9         -64.0610   -35.7570     4.8820 c          1 KD1       0.723000
     19 O9         -64.0730   -35.4920     6.1080 o          1 KD1      -0.711500
     20 C10        -63.4890   -34.6030     3.9750 c6         1 KD1       0.250000
     21 O10        -59.9640   -33.3370     3.6720 oh         1 KD1      -0.688000
     22 C11        -62.0080   -34.3860     4.3070 c6         1 KD1      -0.068400
     23 O11        -64.4200   -36.8200     4.3340 o          1 KD1      -0.711500
     24 C12        -61.3460   -33.4400     3.3220 c6         1 KD1       0.160300
     25 O12        -62.9390   -35.8250     0.0360 oh         1 KD1      -0.740000
     26 C13        -61.5570   -33.9290     1.8910 c6         1 KD1       0.118300
     27 O13        -64.1400   -33.3680     4.2270 os         1 KD1      -0.494000
     28 C14        -63.0660   -34.0690     1.6770 c6         1 KD1       0.140300
     29 O14        -63.6430   -34.9800     2.6150 os         1 KD1      -0.422000
     30 C15        -63.4900   -34.5230     0.2890 c3         1 KD1       0.155300
     31 O15        -60.8430   -35.1470     1.6870 oh         1 KD1      -0.753000
     32 C16        -63.0390   -33.5610    -0.8050 c3         1 KD1       0.137600
     33 C17        -68.2690   -32.3720     1.6210 c          1 KD1       0.725000
     34 O17        -68.6160   -31.1790     1.5600 o          1 KD1      -0.709000
     35 C18        -67.6920   -32.9230     2.9700 c6         1 KD1       0.266000
     36 O18        -67.4970   -31.5090     7.5180 oh         1 KD1      -0.737000
     37 C19        -66.1650   -32.9950     2.8780 c6         1 KD1      -0.099400
     38 C20        -65.5680   -33.3710     4.2310 c6         1 KD1       0.188300
     39 O20        -68.1390   -34.2390     3.2330 os         1 KD1      -0.470000
     40 C21        -66.0500   -32.4170     5.3150 c6         1 KD1       0.151300
     41 O21        -68.0900   -32.0530     4.0140 os         1 KD1      -0.464000
     42 C22        -67.5810   -32.4090     5.3030 c6         1 KD1       0.133300
     43 O22        -65.5060   -31.1170     5.0760 oh         1 KD1      -0.711000
     44 C23        -68.1920   -31.4040     6.2740 c3         1 KD1       0.167300
     45 O23        -69.1650   -36.6560     7.3130 oh         1 KD1      -0.664000
     46 C24        -69.6730   -31.6600     6.4730 c3         1 KD1       0.113600
     47 O24        -73.0400   -37.6400     4.6600 oh         1 KD1      -0.810000
     48 C25        -69.6580   -36.8520     6.0130 c6         1 KD1       0.402300
     49 O25        -71.5610   -36.3070     2.4100 os         1 KD1      -0.581400
     50 C26        -71.1290   -37.2540     6.0330 c6         1 KD1       0.073500
     51 O26        -69.5000   -35.6260     5.3380 os         1 KD1      -0.469000
     52 C27        -71.6510   -37.3770     4.6030 c6         1 KD1       0.143300
     53 O27        -72.7820   -36.1140     0.2470 o          1 KD1      -0.908167
     54 C28        -71.3300   -36.1110     3.7950 c6         1 KD1       0.190300
     55 O28        -73.9180   -37.2460     2.2380 o          1 KD1      -0.908167
     56 C29        -69.8540   -35.7240     3.9550 c6         1 KD1       0.154300
     57 O29        -73.5670   -34.7190     2.2600 o          1 KD1      -0.908167
     58 C30        -69.5540   -34.3920     3.3140 c3         1 KD1       0.176600
     59 HN1        -72.2620   -38.6340     7.0240 hn         1 KD1       0.383500
     60 HN1A       -70.9080   -39.2610     6.3770 hn         1 KD1       0.383500
     61 HO2        -66.4130   -28.7700     0.8450 ho         1 KD1       0.448000
     62 H3         -63.2250   -29.7140    -0.3100 hc         1 KD1       0.053700
     63 H3A        -64.1220   -29.2900    -1.7720 hc         1 KD1       0.053700
     64 H4         -65.2510   -30.7400     0.6540 h1         1 KD1       0.070700
     65 HO4        -68.3200   -32.8360    -0.9580 ho         1 KD1       0.603000
     66 H5         -67.3720   -30.7060    -0.4360 h1         1 KD1       0.104700
     67 HO5        -66.1000   -35.6900    -2.1060 ho         1 KD1       0.405000
     68 H6         -65.9140   -32.6150    -0.6980 h1         1 KD1       0.092700
     69 H7         -67.1300   -32.0080    -3.4120 h1         1 KD1       0.028700
     70 H8         -65.7210   -33.9250    -3.5220 h1         1 KD1       0.006700
     71 H8A        -67.4290   -34.4150    -3.5940 h1         1 KD1       0.006700
     72 HO8        -67.6200   -29.8750    -2.4730 ho         1 KD1       0.488000
     73 HO10       -59.5540   -32.6840     3.0910 ho         1 KD1       0.412000
     74 H11        -61.9270   -34.0000     5.3210 hc         1 KD1       0.055700
     75 H11A       -61.5040   -35.3530     4.2650 hc         1 KD1       0.055700
     76 H12        -61.8150   -32.4540     3.3950 h1         1 KD1       0.050700
     77 HO12       -63.2060   -36.1130    -0.8460 ho         1 KD1       0.481000
     78 H13        -61.1830   -33.1600     1.2020 h1         1 KD1       0.036700
     79 H14        -63.4990   -33.0760     1.8170 h1         1 KD1       0.082700
     80 H15        -64.5810   -34.5850     0.2800 h1         1 KD1       0.097700
     81 HO15       -61.3100   -35.6360     0.9910 ho         1 KD1       0.525000
     82 H16        -63.4900   -33.8760    -1.7490 h1         1 KD1       0.030200
     83 H16A       -61.9500   -33.5920    -0.9120 h1         1 KD1       0.030200
     84 HO18       -68.0210   -31.0200     8.1670 ho         1 KD1       0.480000
     85 H19        -65.8960   -33.7300     2.1240 hc         1 KD1       0.067200
     86 H19A       -65.7880   -32.0220     2.5630 hc         1 KD1       0.067200
     87 HO19       -71.0100   -30.9530     7.7300 ho         1 KD1       0.424000
     88 H20        -65.9290   -34.3630     4.5070 h1         1 KD1       0.095700
     89 H21        -65.7090   -32.7920     6.2820 h1         1 KD1       0.051700
     90 H22        -67.9190   -33.4150     5.5700 h1         1 KD1       0.087700
     91 HO22       -65.6080   -30.6040     5.8870 ho         1 KD1       0.461000
     92 H23        -68.0590   -30.3970     5.8610 h1         1 KD1       0.047700
     93 HO23       -69.6820   -37.2560     7.8760 ho         1 KD1       0.436000
     94 H24        -69.8150   -32.6640     6.8850 h1         1 KD1       0.071200
     95 H24A       -70.1930   -31.5930     5.5140 h1         1 KD1       0.071200
     96 HO24       -73.4180   -37.5430     3.7300 ho         1 KD1       0.549000
     97 H27        -71.1240   -38.2130     4.1140 h1         1 KD1       0.008700
     98 H28        -71.9550   -35.2910     4.1680 h1         1 KD1       0.047700
     99 H29        -69.2370   -36.4990     3.4790 h1         1 KD1       0.061700
    100 H30        -69.9920   -33.5940     3.9190 h1         1 KD1       0.065200
    101 H30A       -69.9930   -34.3620     2.3160 h1         1 KD1       0.065200
    102 O5         -66.4550   -34.8460    -1.8040 oh         1 KD1      -0.619000
    103 O19        -70.1530   -30.6690     7.3900 oh         1 KD1      -0.719000
    104 H25        -69.0600   -37.6210     5.4960 h2         1 KD1       0.028700
    105 H26        -71.6710   -36.4410     6.5260 h1         1 KD1       0.064700
    106 O16        -68.2770   -33.2180     0.6870 o          1 KD1      -0.709000
@<TRIPOS>BOND
     1     1     3 1   
     2     1     5 1   
     3     1     8 1   
     4     2    50 1   
     5     2    59 1   
     6     2    60 1   
     7     4    49 1   
     8     4    53 1   
     9     4    55 1   
    10     4    57 1   
    11     5     7 1   
    12     5    13 1   
    13     5    15 1   
    14     6     9 1   
    15     6    61 1   
    16     7     9 1   
    17     7    62 1   
    18     7    63 1   
    19     9    11 1   
    20     9    64 1   
    21    10    14 1   
    22    10    65 1   
    23    11    12 1   
    24    11    17 1   
    25    11    66 1   
    26    12    14 1   
    27    12    15 1   
    28    12    68 1   
    29    13    32 1   
    30    14    16 1   
    31    14    69 1   
    32    16    70 1   
    33    16    71 1   
    34    16   102 1   
    35    17    72 1   
    36    18    19 1   
    37    18    20 1   
    38    18    23 1   
    39    20    22 1   
    40    20    27 1   
    41    20    29 1   
    42    21    24 1   
    43    21    73 1   
    44    22    24 1   
    45    22    74 1   
    46    22    75 1   
    47    24    26 1   
    48    24    76 1   
    49    25    30 1   
    50    25    77 1   
    51    26    28 1   
    52    26    31 1   
    53    26    78 1   
    54    27    38 1   
    55    28    29 1   
    56    28    30 1   
    57    28    79 1   
    58    30    32 1   
    59    30    80 1   
    60    31    81 1   
    61    32    82 1   
    62    32    83 1   
    63    33    34 1   
    64    33    35 1   
    65    33   106 1   
    66    35    37 1   
    67    35    39 1   
    68    35    41 1   
    69    36    44 1   
    70    36    84 1   
    71    37    38 1   
    72    37    85 1   
    73    37    86 1   
    74    38    40 1   
    75    38    88 1   
    76    39    58 1   
    77    40    42 1   
    78    40    43 1   
    79    40    89 1   
    80    41    42 1   
    81    42    44 1   
    82    42    90 1   
    83    43    91 1   
    84    44    46 1   
    85    44    92 1   
    86    45    48 1   
    87    45    93 1   
    88    46    94 1   
    89    46    95 1   
    90    46   103 1   
    91    47    52 1   
    92    47    96 1   
    93    48    50 1   
    94    48    51 1   
    95    48   104 1   
    96    49    54 1   
    97    50    52 1   
    98    50   105 1   
    99    51    56 1   
   100    52    54 1   
   101    52    97 1   
   102    54    56 1   
   103    54    98 1   
   104    56    58 1   
   105    56    99 1   
   106    58   100 1   
   107    58   101 1   
   108    67   102 1   
   109    87   103 1   
@<TRIPOS>SUBSTRUCTURE
     1 KD1         1 TEMP              0 ****  ****    0 ROOT
