@<TRIPOS>MOLECULE
KD4
   23    24     1     0     0
SMALL
abcg2


@<TRIPOS>ATOM
      1 C6          94.0910    -6.9530    13.9380 ca         1 KD4      -0.118000
      2 C7          94.5090    -8.6780    12.2830 ca         1 KD4      -0.217000
      3 C10         91.5130    -8.1310    16.0780 ca         1 KD4       0.414000
      4 C1          92.8210    -9.0470    13.9680 ca         1 KD4       0.202000
      5 C2          93.1010    -7.7740    14.5090 ca         1 KD4       0.269000
      6 C3          93.5460    -9.4990    12.8260 ca         1 KD4       0.186100
      7 N4          91.8800    -9.8430    14.5160 nb         1 KD4      -0.608000
      8 N5          92.4040    -7.3450    15.5900 nb         1 KD4      -0.635000
      9 O8          93.2170   -10.7110    12.3740 os         1 KD4      -0.305100
     10 C9          91.2170    -9.4290    15.5580 ca         1 KD4       0.326300
     11 C11         94.7720    -7.4140    12.8450 ca         1 KD4      -0.054000
     12 C12         93.8890   -11.2080    11.2310 c3         1 KD4       0.141900
     13 CL14        90.6250    -7.5660    17.4530 cl         1 KD4      -0.158000
     14 H15         94.2910    -5.9820    14.3700 ha         1 KD4       0.139000
     15 H16         95.0790    -8.9850    11.4170 ha         1 KD4       0.123000
     16 H22         90.1290   -11.2490    15.6260 hc         1 KD4       0.061367
     17 H21         90.4120   -10.5250    17.2150 hc         1 KD4       0.061367
     18 H23         89.1970    -9.8390    16.1510 hc         1 KD4       0.061367
     19 H17         95.5370    -6.8000    12.3900 ha         1 KD4       0.118000
     20 H18         93.4660   -12.1880    11.0280 h1         1 KD4       0.045033
     21 H20         93.7330   -10.5670    10.3590 h1         1 KD4       0.045033
     22 H19         94.9630   -11.3130    11.4060 h1         1 KD4       0.045033
     23 C13         90.1810   -10.3100    16.1710 c3         1 KD4      -0.142400
@<TRIPOS>BOND
     1     1     5 ar  
     2     1    11 ar  
     3     1    14 1   
     4     2     6 ar  
     5     2    11 ar  
     6     2    15 1   
     7     3     8 ar  
     8     3    10 ar  
     9     3    13 1   
    10     4     5 ar  
    11     4     6 ar  
    12     4     7 ar  
    13     5     8 ar  
    14     6     9 1   
    15     7    10 ar  
    16     9    12 1   
    17    10    23 1   
    18    11    19 1   
    19    12    20 1   
    20    12    21 1   
    21    12    22 1   
    22    16    23 1   
    23    17    23 1   
    24    18    23 1   
@<TRIPOS>SUBSTRUCTURE
     1 KD4         1 TEMP              0 ****  ****    0 ROOT
