@<TRIPOS>MOLECULE
KD4
   23    24     1     0     0
SMALL
No Charge or Current Charge


@<TRIPOS>ATOM
      1 C6          94.0740    -6.9640    13.9430 ca         1 KD4      -0.118000
      2 C7          94.5220    -8.6570    12.2650 ca         1 KD4      -0.217000
      3 C10         91.4800    -8.1070    16.1580 ca         1 KD4       0.414000
      4 C1          92.8010    -9.0660    13.9750 ca         1 KD4       0.202000
      5 C2          93.0860    -7.7710    14.5320 ca         1 KD4       0.269000
      6 C3          93.5350    -9.4940    12.8340 ca         1 KD4       0.186100
      7 N4          91.8430    -9.8720    14.5300 nb         1 KD4      -0.608000
      8 N5          92.4250    -7.2950    15.6220 nb         1 KD4      -0.635000
      9 O8          93.2590   -10.7440    12.2960 os         1 KD4      -0.305100
     10 C9          91.1860    -9.3920    15.6190 ca         1 KD4       0.326300
     11 C11         94.7880    -7.3980    12.8190 ca         1 KD4      -0.054000
     12 C12         93.9470   -11.2640    11.1450 c3         1 KD4       0.141900
     13 Cl14        90.6350    -7.4720    17.5700 cl         1 KD4      -0.158000
     14 H15         94.2870    -5.9860    14.3660 ha         1 KD4       0.139000
     15 H16         95.0930    -8.9650    11.3940 ha         1 KD4       0.123000
     16 H22         90.0420   -11.2500    15.6690 hc         1 KD4       0.061367
     17 H21         90.3660   -10.5490    17.2600 hc         1 KD4       0.061367
     18 H23         89.1420    -9.8240    16.2020 hc         1 KD4       0.061367
     19 H17         95.5490    -6.7570    12.3780 ha         1 KD4       0.118000
     20 H18         93.5690   -12.2640    10.8970 h1         1 KD4       0.045033
     21 H20         93.7920   -10.6170    10.2720 h1         1 KD4       0.045033
     22 H19         95.0240   -11.3470    11.3370 h1         1 KD4       0.045033
     23 C13         90.1260   -10.3050    16.2190 c3         1 KD4      -0.142400
@<TRIPOS>BOND
     1     1     5 ar  
     2     1    11 ar  
     3     1    14 1   
     4     2     6 ar  
     5     2    11 ar  
     6     2    15 1   
     7     3     8 ar  
     8     3    10 ar  
     9     3    13 1   
    10     4     5 ar  
    11     4     6 ar  
    12     4     7 ar  
    13     5     8 ar  
    14     6     9 1   
    15     7    10 ar  
    16     9    12 1   
    17    10    23 1   
    18    11    19 1   
    19    12    20 1   
    20    12    21 1   
    21    12    22 1   
    22    16    23 1   
    23    17    23 1   
    24    18    23 1   
@<TRIPOS>SUBSTRUCTURE
     1 KD4         1 TEMP              0 ****  ****    0 ROOT
