@<TRIPOS>MOLECULE
KD5
   26    26     1     0     0
SMALL
No Charge or Current Charge


@<TRIPOS>ATOM
      1 O5           1.7470    -2.8400    -0.3760 oh         1 KD5      -0.701000
      2 C4           0.2560    -0.8110    -0.3750 c5         1 KD5       0.175300
      3 C5           1.4210    -1.6070     0.2790 c5         1 KD5       0.133300
      4 C6           2.5340    -0.5380     0.1100 c5         1 KD5       0.088300
      5 O6           3.7170    -0.8620     0.8590 oh         1 KD5      -0.716000
      6 C7           1.7540     0.7160     0.6300 c5         1 KD5       0.134300
      7 O7           0.3760     0.5100     0.1990 os         1 KD5      -0.415000
      8 C8           2.2990     2.0740     0.1020 c3         1 KD5       0.161600
      9 H1           2.6710    -3.0480    -0.0990 ho         1 KD5       0.502000
     10 H2           0.4110    -0.7310    -1.4610 h1         1 KD5       0.063700
     11 H4           1.2130    -1.7860     1.3440 h1         1 KD5       0.056700
     12 H5           2.7840    -0.4140    -0.9550 h1         1 KD5       0.044700
     13 H6           4.4140    -0.2080     0.6140 ho         1 KD5       0.498000
     14 H7           1.7670     0.7360     1.7280 h1         1 KD5       0.065700
     15 H8           2.0280     4.0050     0.3470 ho         1 KD5       0.490000
     16 H9           3.3850     2.1020     0.2620 h1         1 KD5       0.010200
     17 H10          2.1220     2.1340    -0.9800 h1         1 KD5       0.010200
     18 C3          -1.1570    -1.3660    -0.1120 c3         1 KD5      -0.191400
     19 C2          -2.2150    -0.4690    -0.7730 c          1 KD5       0.436100
     20 C1          -2.9610     0.6260     0.1610 c          1 KD5       0.650000
     21 O2          -2.4730    -0.6000    -1.9730 o          1 KD5      -0.555100
     22 OH          -3.2990     1.6950    -0.3450 o          1 KD5      -0.699000
     23 O1          -3.2210     0.3290     1.3250 o          1 KD5      -0.699000
     24 H3          -1.2290    -2.3760    -0.5290 hc         1 KD5       0.074700
     25 H11         -1.3150    -1.3940     0.9720 hc         1 KD5       0.074700
     26 O8           1.6840     3.1860     0.7740 oh         1 KD5      -0.693000
@<TRIPOS>BOND
     1     1     3 1   
     2     1     9 1   
     3     2     3 1   
     4     2     7 1   
     5     2    10 1   
     6     2    18 1   
     7     3     4 1   
     8     3    11 1   
     9     4     5 1   
    10     4     6 1   
    11     4    12 1   
    12     5    13 1   
    13     6     7 1   
    14     6     8 1   
    15     6    14 1   
    16     8    16 1   
    17     8    17 1   
    18     8    26 1   
    19    15    26 1   
    20    18    19 1   
    21    18    24 1   
    22    18    25 1   
    23    19    20 1   
    24    19    21 2   
    25    20    22 1   
    26    20    23 1   
@<TRIPOS>SUBSTRUCTURE
     1 KD5         1 TEMP              0 ****  ****    0 ROOT
