@<TRIPOS>MOLECULE
KD5
   26    26     1     0     0
SMALL
bcc


@<TRIPOS>ATOM
      1 O5           1.4160    -2.6280    -0.4490 oh         1 KD5      -0.578800
      2 C4           0.2660    -0.5260    -0.3210 c5         1 KD5       0.152100
      3 C5           1.3520    -1.4230     0.2600 c5         1 KD5       0.110100
      4 C6           2.5730    -0.5270     0.1490 c5         1 KD5       0.065100
      5 O6           3.5970    -0.9590     1.0040 oh         1 KD5      -0.593800
      6 C7           1.9770     0.8390     0.5010 c5         1 KD5       0.111100
      7 O7           0.6210     0.7920     0.0740 os         1 KD5      -0.368600
      8 C8           2.7080     1.9860    -0.1530 c3         1 KD5       0.138400
      9 H1           2.0290    -3.2160     0.0040 ho         1 KD5       0.403000
     10 H2           0.3030    -0.6110    -1.4160 h1         1 KD5       0.063700
     11 H4           1.1500    -1.5970     1.3290 h1         1 KD5       0.056700
     12 H5           2.9060    -0.5250    -0.9000 h1         1 KD5       0.044700
     13 H6           4.4180    -0.5260     0.7540 ho         1 KD5       0.399000
     14 H7           2.0120     0.9670     1.5930 h1         1 KD5       0.065700
     15 H8           2.6590     3.9210    -0.1100 ho         1 KD5       0.391000
     16 H9           3.7750     1.8960     0.0940 h1         1 KD5       0.010200
     17 H10          2.6250     1.8860    -1.2440 h1         1 KD5       0.010200
     18 C3          -1.1220    -0.8690     0.1710 c3         1 KD5      -0.191400
     19 C2          -2.2300    -0.0790    -0.4760 c          1 KD5       0.436100
     20 C1          -3.6600    -0.2560     0.1130 c          1 KD5       0.860600
     21 O2          -2.0360     0.6430    -1.4250 o          1 KD5      -0.555100
     22 OH          -4.5200     0.5230    -0.3190 o          1 KD5      -0.804300
     23 O1          -3.7790    -1.1680     0.9490 o          1 KD5      -0.804300
     24 H3          -1.3180    -1.9310    -0.0160 hc         1 KD5       0.074700
     25 H11         -1.1820    -0.7560     1.2570 hc         1 KD5       0.074700
     26 O8           2.1710     3.2040     0.3050 oh         1 KD5      -0.570800
@<TRIPOS>BOND
     1     1     3 1   
     2     1     9 1   
     3     2     3 1   
     4     2     7 1   
     5     2    10 1   
     6     2    18 1   
     7     3     4 1   
     8     3    11 1   
     9     4     5 1   
    10     4     6 1   
    11     4    12 1   
    12     5    13 1   
    13     6     7 1   
    14     6     8 1   
    15     6    14 1   
    16     8    16 1   
    17     8    17 1   
    18     8    26 1   
    19    15    26 1   
    20    18    19 1   
    21    18    24 1   
    22    18    25 1   
    23    19    20 1   
    24    19    21 2   
    25    20    22 1   
    26    20    23 1   
@<TRIPOS>SUBSTRUCTURE
     1 KD5         1 TEMP              0 ****  ****    0 ROOT
