@<TRIPOS>MOLECULE
KD6
   16    17     1     0     0
SMALL
No Charge or Current Charge


@<TRIPOS>ATOM
      1 N          110.4980  -176.2500   311.9330 na         1 KD6      -0.217700
      2 C         -107.6420  -177.1720   314.1660 ca         1 KD6       0.153000
      3 Br         105.2810  -175.6750   315.0030 br         1 KD6      -0.079100
      4 C7        -106.9350  -175.9440   314.0680 ca         1 KD6      -0.049900
      5 Cl         107.0230  -178.4960   315.1520 cl         1 KD6      -0.179000
      6 C6        -107.4460  -174.8940   313.2740 ca         1 KD6      -0.021000
      7 C5         108.6550  -175.1130   312.6000 ca         1 KD6      -0.103800
      8 C2        -109.3380  -176.2920   312.6910 ca         1 KD6      -0.037200
      9 C1         108.8570  -177.3520   313.4710 ca         1 KD6      -0.121000
     10 C4        -109.4060  -174.2550   311.7380 cc         1 KD6      -0.231200
     11 C3         110.5320  -174.9640   311.3370 cd         1 KD6      -0.158100
     12 H1        -111.1850  -176.9920   311.8270 hn         1 KD6       0.354000
     13 H2         106.9190  -173.9470   313.1870 ha         1 KD6       0.134000
     14 H3        -109.4030  -178.2900   313.5420 ha         1 KD6       0.131000
     15 H4         109.1580  -173.2360   311.4410 ha         1 KD6       0.211000
     16 H5        -111.3440  -174.6550   310.6810 h4         1 KD6       0.216000
@<TRIPOS>BOND
     1     1     8 1   
     2     1    11 1   
     3     1    12 1   
     4     2     4 ar  
     5     2     5 1   
     6     2     9 ar  
     7     3     4 1   
     8     4     6 ar  
     9     6     7 ar  
    10     6    13 1   
    11     7     8 ar  
    12     7    10 1   
    13     8     9 ar  
    14     9    14 1   
    15    10    11 2   
    16    10    15 1   
    17    11    16 1   
@<TRIPOS>SUBSTRUCTURE
     1 KD6         1 TEMP              0 ****  ****    0 ROOT
