@<TRIPOS>MOLECULE
KD6
   16    17     1     0     0
SMALL
bcc


@<TRIPOS>ATOM
      1 N         -110.4560  -176.2160   311.9430 na         1 KD6      -0.167400
      2 C         -107.6620  -177.1620   314.1500 ca         1 KD6       0.061400
      3 BR        -105.3350  -175.7090   314.9760 br         1 KD6      -0.079100
      4 C7        -106.9600  -175.9450   314.0510 ca         1 KD6      -0.049900
      5 CL        -107.0500  -178.4530   315.1220 cl         1 KD6      -0.087400
      6 C6        -107.4430  -174.9060   313.2810 ca         1 KD6      -0.039000
      7 C5        -108.6440  -175.0780   312.5910 ca         1 KD6      -0.103800
      8 C2        -109.3310  -176.3080   312.7010 ca         1 KD6      -0.037200
      9 C1        -108.8510  -177.3570   313.4770 ca         1 KD6      -0.139000
     10 C4        -109.4200  -174.2470   311.7270 cc         1 KD6      -0.181200
     11 C3        -110.5090  -174.9820   311.3600 cd         1 KD6      -0.108100
     12 H1        -111.1450  -176.9420   311.8260 hn         1 KD6       0.303700
     13 H2        -106.9000  -173.9730   313.2130 ha         1 KD6       0.152000
     14 H3        -109.3850  -178.2940   313.5560 ha         1 KD6       0.149000
     15 H4        -109.1980  -173.2380   311.4200 ha         1 KD6       0.161000
     16 H5        -111.3330  -174.7180   310.7160 h4         1 KD6       0.166000
@<TRIPOS>BOND
     1     1     8 1   
     2     1    11 1   
     3     1    12 1   
     4     2     4 ar  
     5     2     5 1   
     6     2     9 ar  
     7     3     4 1   
     8     4     6 ar  
     9     6     7 ar  
    10     6    13 1   
    11     7     8 ar  
    12     7    10 1   
    13     8     9 ar  
    14     9    14 1   
    15    10    11 2   
    16    10    15 1   
    17    11    16 1   
@<TRIPOS>SUBSTRUCTURE
     1 KD6         1 TEMP              0 ****  ****    0 ROOT
