@<TRIPOS>MOLECULE
KD8
   22    23     1     0     0
SMALL
abcg2


@<TRIPOS>ATOM
      1 N1         -21.4830     2.7050    20.8340 ns         1 KD8      -0.516900
      2 N3         -23.4190     1.4880    20.7440 ns         1 KD8      -0.418500
      3 C4         -24.1590     2.3380    21.5520 c          1 KD8       0.483500
      4 C6         -23.2820     5.4400    23.1910 ca         1 KD8       0.281300
      5 C7         -21.9210     5.5770    22.7990 ca         1 KD8       0.383300
      6 C2         -22.1190     1.6160    20.3620 cs         1 KD8       0.453400
      7 C4A        -23.3980     3.5000    22.0170 ca         1 KD8       0.194500
      8 C8A        -22.0740     3.6440    21.6400 ca         1 KD8       0.447900
      9 CAK        -23.9410     6.4700    24.0470 c3         1 KD8      -0.141400
     10 CAL        -21.1160     6.7480    23.2420 c3         1 KD8      -0.155400
     11 N5         -23.9860     4.4040    22.7940 nb         1 KD8      -0.560000
     12 N8         -21.3400     4.6770    22.0320 nb         1 KD8      -0.687000
     13 O4         -25.3140     2.1070    21.8200 o          1 KD8      -0.461000
     14 S2         -21.3770     0.5020    19.3840 s          1 KD8      -0.538400
     15 H1         -20.5140     2.8390    20.5730 hn         1 KD8       0.492000
     16 H2         -23.9010     0.6720    20.3870 hn         1 KD8       0.365500
     17 H3         -24.9500     6.1570    24.3040 hc         1 KD8       0.059700
     18 H4         -23.3860     6.6430    24.9700 hc         1 KD8       0.059700
     19 H5         -24.0010     7.4290    23.5290 hc         1 KD8       0.059700
     20 H6         -20.0900     6.6660    22.8920 hc         1 KD8       0.065367
     21 H7         -21.5420     7.6770    22.8580 hc         1 KD8       0.065367
     22 H8         -21.1100     6.8310    24.3300 hc         1 KD8       0.065367
@<TRIPOS>BOND
     1     1     6 1   
     2     1     8 1   
     3     1    15 1   
     4     2     3 1   
     5     2     6 1   
     6     2    16 1   
     7     3     7 1   
     8     3    13 2   
     9     4     5 ar  
    10     4     9 1   
    11     4    11 ar  
    12     5    10 1   
    13     5    12 ar  
    14     6    14 2   
    15     7     8 ar  
    16     7    11 ar  
    17     8    12 ar  
    18     9    17 1   
    19     9    18 1   
    20     9    19 1   
    21    10    20 1   
    22    10    21 1   
    23    10    22 1   
@<TRIPOS>SUBSTRUCTURE
     1 KD8         1 TEMP              0 ****  ****    0 ROOT
