@<TRIPOS>MOLECULE
KD8
   22    23     1     0     0
SMALL
No Charge or Current Charge


@<TRIPOS>ATOM
      1 N1         -21.5250     2.6960    20.8410 ns         1 KD8      -0.516900
      2 N3         -23.3990     1.4320    20.7140 ns         1 KD8      -0.418500
      3 C4         -24.1710     2.2640    21.5060 c          1 KD8       0.483500
      4 C6         -23.3010     5.4800    23.2080 ca         1 KD8       0.281300
      5 C7         -21.9280     5.5980    22.7970 ca         1 KD8       0.383300
      6 C2         -22.0930     1.5740    20.3410 cs         1 KD8       0.453400
      7 C4A        -23.4680     3.5020    22.0310 ca         1 KD8       0.194500
      8 C8A        -22.1210     3.6460    21.6450 ca         1 KD8       0.447900
      9 CAK        -23.9770     6.5180    24.0950 c3         1 KD8      -0.141400
     10 CAL        -21.0520     6.7680    23.2190 c3         1 KD8      -0.155400
     11 N5         -24.0840     4.4290    22.8280 nb         1 KD8      -0.560000
     12 N8         -21.3240     4.6680    22.0030 nb         1 KD8      -0.687000
     13 O4         -25.3390     1.9910    21.7480 o          1 KD8      -0.461000
     14 S2         -21.2840     0.4890    19.3770 s          1 KD8      -0.538400
     15 H1         -20.5550     2.8770    20.6120 hn         1 KD8       0.492000
     16 H2         -23.8720     0.6090    20.3660 hn         1 KD8       0.365500
     17 H3         -25.0220     6.2590    24.3030 hc         1 KD8       0.059700
     18 H4         -23.4610     6.6040    25.0590 hc         1 KD8       0.059700
     19 H5         -23.9700     7.5050    23.6180 hc         1 KD8       0.059700
     20 H6         -20.0380     6.6860    22.8100 hc         1 KD8       0.065367
     21 H7         -21.4740     7.7170    22.8690 hc         1 KD8       0.065367
     22 H8         -20.9650     6.8170    24.3100 hc         1 KD8       0.065367
@<TRIPOS>BOND
     1     1     6 1   
     2     1     8 1   
     3     1    15 1   
     4     2     3 1   
     5     2     6 1   
     6     2    16 1   
     7     3     7 1   
     8     3    13 2   
     9     4     5 ar  
    10     4     9 1   
    11     4    11 ar  
    12     5    10 1   
    13     5    12 ar  
    14     6    14 2   
    15     7     8 ar  
    16     7    11 ar  
    17     8    12 ar  
    18     9    17 1   
    19     9    18 1   
    20     9    19 1   
    21    10    20 1   
    22    10    21 1   
    23    10    22 1   
@<TRIPOS>SUBSTRUCTURE
     1 KD8         1 TEMP              0 ****  ****    0 ROOT
