@<TRIPOS>MOLECULE
KDA
   36    36     1     0     0
SMALL
abcg2


@<TRIPOS>ATOM
      1 C1           0.5140    -1.4490    -2.1430 c          1 KDA       0.721000
      2 O1A          0.9140    -1.0720    -3.2600 o          1 KDA      -0.693000
      3 O1B          0.4120    -2.6110    -1.7220 o          1 KDA      -0.693000
      4 C2           0.0350    -0.2950    -1.2090 c6         1 KDA       0.245000
      5 C3          -1.3270     0.2100    -1.6850 c6         1 KDA      -0.109400
      6 C4          -1.9380     1.1830    -0.6840 c6         1 KDA       0.122300
      7 O4          -3.2680     1.5260    -1.0150 oh         1 KDA      -0.689000
      8 C5          -1.9690     0.5600     0.7090 c6         1 KDA       0.163300
      9 O5          -2.8290    -0.5520     0.7620 oh         1 KDA      -0.699000
     10 C6          -0.5580     0.1060     1.0610 c6         1 KDA       0.139300
     11 O6          -0.0570    -0.7960     0.0960 os         1 KDA      -0.429000
     12 C7          -0.4660    -0.5980     2.4200 c3         1 KDA       0.176300
     13 O7          -1.0500     0.1900     3.4300 oh         1 KDA      -0.709000
     14 C8           0.9790    -0.9500     2.7430 c3         1 KDA       0.123600
     15 O8           1.0180    -1.6030     3.9900 oh         1 KDA      -0.658000
     16 O2           0.8980     0.8120    -1.2580 os         1 KDA      -0.487000
     17 C9           2.2280     0.5830    -0.8410 c3         1 KDA       0.201800
     18 C10          3.0070     1.8320    -1.0910 c2         1 KDA      -0.179200
     19 C11          3.6560     2.4990    -0.1440 c2         1 KDA      -0.361000
     20 H31         -1.2210     0.6770    -2.6670 hc         1 KDA       0.069200
     21 H32         -1.9970    -0.6460    -1.8050 hc         1 KDA       0.069200
     22 H4          -1.3150     2.0860    -0.6290 h1         1 KDA       0.040700
     23 HO4         -3.2850     1.8550    -1.9190 ho         1 KDA       0.443000
     24 H5          -2.2730     1.3330     1.4280 h1         1 KDA       0.027700
     25 HO5         -3.6820    -0.2810     0.4060 ho         1 KDA       0.504000
     26 H6           0.0680     1.0120     1.1060 h1         1 KDA       0.024700
     27 H7          -1.0530    -1.5200     2.3830 h1         1 KDA       0.113700
     28 HO7         -0.5270     0.9920     3.5380 ho         1 KDA       0.482000
     29 H81          1.3840    -1.5800     1.9440 h1         1 KDA       0.033700
     30 H82          1.5770    -0.0240     2.7540 h1         1 KDA       0.033700
     31 HO8          1.9140    -1.9230     4.1270 ho         1 KDA       0.429000
     32 H91          2.6780    -0.2460    -1.4030 h1         1 KDA       0.037200
     33 H92          2.2830     0.3190     0.2220 h1         1 KDA       0.037200
     34 H10          3.0410     2.1830    -2.1180 ha         1 KDA       0.176000
     35 H111         4.2280     3.3900    -0.3670 ha         1 KDA       0.148000
     36 H112         3.6420     2.1780     0.8910 ha         1 KDA       0.148000
@<TRIPOS>BOND
     1     1     2 1   
     2     1     3 1   
     3     1     4 1   
     4     4     5 1   
     5     4    11 1   
     6     4    16 1   
     7     5     6 1   
     8     5    20 1   
     9     5    21 1   
    10     6     7 1   
    11     6     8 1   
    12     6    22 1   
    13     7    23 1   
    14     8     9 1   
    15     8    10 1   
    16     8    24 1   
    17     9    25 1   
    18    10    11 1   
    19    10    12 1   
    20    10    26 1   
    21    12    13 1   
    22    12    14 1   
    23    12    27 1   
    24    13    28 1   
    25    14    15 1   
    26    14    29 1   
    27    14    30 1   
    28    15    31 1   
    29    16    17 1   
    30    17    18 1   
    31    17    32 1   
    32    17    33 1   
    33    18    19 2   
    34    18    34 1   
    35    19    35 1   
    36    19    36 1   
@<TRIPOS>SUBSTRUCTURE
     1 KDA         1 TEMP              0 ****  ****    0 ROOT
