@<TRIPOS>MOLECULE
KDA
   36    36     1     0     0
SMALL
No Charge or Current Charge


@<TRIPOS>ATOM
      1 C1           0.3580    -1.5860    -2.3380 c          1 KDA       0.721000
      2 O1A          1.1660    -1.3440    -3.2310 o          1 KDA      -0.693000
      3 O1B          0.3590    -2.7190    -1.8610 o          1 KDA      -0.693000
      4 C2          -0.0140    -0.3750    -1.3320 c6         1 KDA       0.245000
      5 C3          -1.4230     0.1440    -1.7460 c6         1 KDA      -0.109400
      6 C4          -1.9970     1.1890    -0.7520 c6         1 KDA       0.122300
      7 O4          -3.3530     1.5060    -1.1160 oh         1 KDA      -0.689000
      8 C5          -1.9570     0.6540     0.7090 c6         1 KDA       0.163300
      9 O5          -2.9350    -0.3960     0.8270 oh         1 KDA      -0.699000
     10 C6          -0.5040     0.1780     1.0260 c6         1 KDA       0.139300
     11 O6          -0.0730    -0.8220     0.0620 os         1 KDA      -0.429000
     12 C7          -0.3520    -0.4270     2.4610 c3         1 KDA       0.176300
     13 O7          -0.6810     0.5270     3.4930 oh         1 KDA      -0.709000
     14 C8           1.0780    -0.9500     2.7630 c3         1 KDA       0.123600
     15 O8           1.1740    -1.3570     4.1420 oh         1 KDA      -0.658000
     16 O2           0.9270     0.7430    -1.3990 os         1 KDA      -0.487000
     17 C9           2.2870     0.5020    -0.9870 c3         1 KDA       0.201800
     18 C10          3.0070     1.8320    -1.0140 c2         1 KDA      -0.179200
     19 C11          3.2740     2.6000     0.0560 c2         1 KDA      -0.361000
     20 H31         -1.3660     0.5800    -2.7530 hc         1 KDA       0.069200
     21 H32         -2.1080    -0.7110    -1.8250 hc         1 KDA       0.069200
     22 H4          -1.3750     2.0960    -0.7990 h1         1 KDA       0.040700
     23 HO4         -3.3120     2.0340    -1.9450 ho         1 KDA       0.443000
     24 H5          -2.2150     1.4810     1.3870 h1         1 KDA       0.027700
     25 HO5         -3.6250    -0.1190     0.1770 ho         1 KDA       0.504000
     26 H6           0.1720     1.0430     0.9650 h1         1 KDA       0.024700
     27 H7          -1.0320    -1.2900     2.5160 h1         1 KDA       0.113700
     28 HO7         -0.1920     0.1880     4.2810 ho         1 KDA       0.482000
     29 H81          1.3000    -1.7970     2.1000 h1         1 KDA       0.033700
     30 H82          1.8080    -0.1580     2.5460 h1         1 KDA       0.033700
     31 HO8          2.0660    -1.7530     4.2660 ho         1 KDA       0.429000
     32 H91          2.7930    -0.2020    -1.6600 h1         1 KDA       0.037200
     33 H92          2.3260     0.0850     0.0280 h1         1 KDA       0.037200
     34 H10          3.3100     2.1460    -2.0150 ha         1 KDA       0.176000
     35 H111         3.7970     3.5520    -0.0420 ha         1 KDA       0.148000
     36 H112         2.9740     2.3040     1.0620 ha         1 KDA       0.148000
@<TRIPOS>BOND
     1     1     2 1   
     2     1     3 1   
     3     1     4 1   
     4     4     5 1   
     5     4    11 1   
     6     4    16 1   
     7     5     6 1   
     8     5    20 1   
     9     5    21 1   
    10     6     7 1   
    11     6     8 1   
    12     6    22 1   
    13     7    23 1   
    14     8     9 1   
    15     8    10 1   
    16     8    24 1   
    17     9    25 1   
    18    10    11 1   
    19    10    12 1   
    20    10    26 1   
    21    12    13 1   
    22    12    14 1   
    23    12    27 1   
    24    13    28 1   
    25    14    15 1   
    26    14    29 1   
    27    14    30 1   
    28    15    31 1   
    29    16    17 1   
    30    17    18 1   
    31    17    32 1   
    32    17    33 1   
    33    18    19 2   
    34    18    34 1   
    35    19    35 1   
    36    19    36 1   
@<TRIPOS>SUBSTRUCTURE
     1 KDA         1 TEMP              0 ****  ****    0 ROOT
