@<TRIPOS>MOLECULE
KDB
   25    25     1     0     0
SMALL
bcc


@<TRIPOS>ATOM
      1 O2           1.4900     0.0890    -1.7270 oh         1 KDB      -0.649800
      2 C2           1.4150    -0.1310    -0.3570 c6         1 KDB       0.208800
      3 C1           2.4200     0.8280     0.3560 c          1 KDB       0.930600
      4 O1B          2.6750     0.6110     1.5450 o          1 KDB      -0.800800
      5 O1A          2.8530     1.7450    -0.3760 o          1 KDB      -0.800800
      6 C3           1.7080    -1.5720    -0.0650 c2         1 KDB      -0.115200
      7 C4           0.7940    -2.4020     0.4230 c2         1 KDB      -0.211200
      8 C5          -0.6210    -1.9740     0.6620 c6         1 KDB      -0.051200
      9 C6          -0.8900    -0.6780    -0.0860 c6         1 KDB       0.118100
     10 O6           0.1580     0.2410     0.1620 os         1 KDB      -0.404600
     11 C7          -2.1950     0.0020     0.3350 c3         1 KDB       0.143100
     12 O7          -3.2670    -0.9130     0.3140 oh         1 KDB      -0.594800
     13 C8          -2.4770     1.2260    -0.5220 c3         1 KDB       0.103400
     14 O8          -3.6260     1.8740    -0.0260 oh         1 KDB      -0.598800
     15 HO2          1.9740     0.9370    -1.7820 ho         1 KDB       0.446000
     16 H3           2.7160    -1.9150    -0.2710 ha         1 KDB       0.122000
     17 H4           1.0560    -3.4300     0.6450 ha         1 KDB       0.101000
     18 H5          -1.3040    -2.7550     0.3230 hc         1 KDB       0.040700
     19 H5A         -0.8060    -1.8500     1.7360 hc         1 KDB       0.040700
     20 H6          -0.9450    -0.9030    -1.1630 h1         1 KDB       0.026700
     21 H7          -2.0940     0.3160     1.3800 h1         1 KDB       0.096700
     22 HO7         -3.4100    -1.2000    -0.5950 ho         1 KDB       0.387000
     23 H8          -1.6030     1.8840    -0.5040 h1         1 KDB       0.034700
     24 H8A         -2.6120     0.9030    -1.5660 h1         1 KDB       0.034700
     25 HO8         -3.7780     2.6570    -0.5620 ho         1 KDB       0.389000
@<TRIPOS>BOND
     1     1     2 1   
     2     1    15 1   
     3     2     3 1   
     4     2     6 1   
     5     2    10 1   
     6     3     4 1   
     7     3     5 1   
     8     6     7 2   
     9     6    16 1   
    10     7     8 1   
    11     7    17 1   
    12     8     9 1   
    13     8    18 1   
    14     8    19 1   
    15     9    10 1   
    16     9    11 1   
    17     9    20 1   
    18    11    12 1   
    19    11    13 1   
    20    11    21 1   
    21    12    22 1   
    22    13    14 1   
    23    13    23 1   
    24    13    24 1   
    25    14    25 1   
@<TRIPOS>SUBSTRUCTURE
     1 KDB         1 TEMP              0 ****  ****    0 ROOT
