@<TRIPOS>MOLECULE
KDB
   25    25     1     0     0
SMALL
No Charge or Current Charge


@<TRIPOS>ATOM
      1 O2           1.4880     0.0230    -1.7260 oh         1 KDB      -0.712000
      2 C2           1.5030    -0.0930    -0.2900 c6         1 KDB       0.255200
      3 C1           2.6250     0.8900     0.3230 c          1 KDB       0.720000
      4 O1B          2.4170     1.4500     1.3960 o          1 KDB      -0.695500
      5 O1A          3.4970     1.2720    -0.4560 o          1 KDB      -0.695500
      6 C3           1.8230    -1.5480     0.0650 c2         1 KDB      -0.165200
      7 C4           0.8940    -2.4420     0.4490 c2         1 KDB      -0.261200
      8 C5          -0.5770    -2.0730     0.5620 c6         1 KDB      -0.051200
      9 C6          -0.8770    -0.7240    -0.1530 c6         1 KDB       0.141300
     10 O6           0.1600     0.2420     0.1680 os         1 KDB      -0.451000
     11 C7          -2.2600    -0.1100     0.2540 c3         1 KDB       0.166300
     12 O7          -3.3590    -1.0000    -0.0290 oh         1 KDB      -0.717000
     13 C8          -2.5680     1.2390    -0.4490 c3         1 KDB       0.126600
     14 O8          -3.9090     1.6640    -0.1350 oh         1 KDB      -0.661000
     15 HO2          2.3290     0.5030    -1.9170 ho         1 KDB       0.485000
     16 H3           2.8730    -1.8350    -0.0090 ha         1 KDB       0.172000
     17 H4           1.1680    -3.4700     0.6930 ha         1 KDB       0.151000
     18 H5          -1.1920    -2.8670     0.1180 hc         1 KDB       0.040700
     19 H5A         -0.8550    -2.0130     1.6230 hc         1 KDB       0.040700
     20 H6          -0.8830    -0.8870    -1.2400 h1         1 KDB       0.026700
     21 H7          -2.2140     0.0900     1.3340 h1         1 KDB       0.096700
     22 HO7         -4.1300    -0.3870    -0.1140 ho         1 KDB       0.486000
     23 H8          -1.8420     1.9940    -0.1170 h1         1 KDB       0.034700
     24 H8A         -2.4490     1.1190    -1.5350 h1         1 KDB       0.034700
     25 HO8         -4.0310     2.5550    -0.5350 ho         1 KDB       0.428000
@<TRIPOS>BOND
     1     1     2 1   
     2     1    15 1   
     3     2     3 1   
     4     2     6 1   
     5     2    10 1   
     6     3     4 1   
     7     3     5 1   
     8     6     7 2   
     9     6    16 1   
    10     7     8 1   
    11     7    17 1   
    12     8     9 1   
    13     8    18 1   
    14     8    19 1   
    15     9    10 1   
    16     9    11 1   
    17     9    20 1   
    18    11    12 1   
    19    11    13 1   
    20    11    21 1   
    21    12    22 1   
    22    13    14 1   
    23    13    23 1   
    24    13    24 1   
    25    14    25 1   
@<TRIPOS>SUBSTRUCTURE
     1 KDB         1 TEMP              0 ****  ****    0 ROOT
