@<TRIPOS>MOLECULE
KDC
   40    43     1     0     0
SMALL
No Charge or Current Charge


@<TRIPOS>ATOM
      1 C1          93.6400   -12.5160     8.9910 ca         1 KDC      -0.043200
      2 C2          93.1220   -12.8890     7.7480 ca         1 KDC      -0.193000
      3 C3          94.9370   -12.7980     9.3350 ca         1 KDC       0.067400
      4 N4          93.0360   -11.8610    10.0260 na         1 KDC      -0.292600
      5 C5          93.9230   -13.5570     6.8350 ca         1 KDC       0.110400
      6 S6          91.5030   -12.6150     7.1390 ss         1 KDC       0.029800
      7 N7          95.2390   -12.3410    10.6080 nc         1 KDC      -0.527100
      8 C8          95.7800   -13.4750     8.4330 ca         1 KDC      -0.044000
      9 C9          94.0680   -11.7930    10.9660 cd         1 KDC       0.401700
     10 C10         95.2630   -13.8560     7.1710 ca         1 KDC      -0.084000
     11 N11         93.3370   -13.8950     5.6180 nc         1 KDC      -0.519100
     12 C12         92.0670   -13.4500     5.6660 cd         1 KDC       0.387100
     13 S13         93.8230   -11.0200    12.5390 ss         1 KDC      -0.208200
     14 C14         92.0670   -10.4260    12.5010 c3         1 KDC      -0.007700
     15 C15         91.6890    -9.7200    13.7950 ca         1 KDC       0.372300
     16 C16         92.2510    -8.4780    14.1230 ca         1 KDC      -0.237000
     17 N17         90.7950   -10.3470    14.5900 nb         1 KDC      -0.684000
     18 C18         91.8800    -7.8540    15.3280 ca         1 KDC       0.183100
     19 C19         90.4400    -9.7450    15.7470 ca         1 KDC       0.363900
     20 C20         90.9510    -8.5020    16.1610 ca         1 KDC      -0.152300
     21 O21         92.3930    -6.6330    15.7200 os         1 KDC      -0.341100
     22 C22         90.5050    -7.8810    17.4810 c3         1 KDC      -0.031800
     23 C23         93.3490    -5.9120    14.9250 c3         1 KDC       0.162600
     24 C24         93.6860    -4.6130    15.6740 c3         1 KDC      -0.095100
     25 H1          92.0900   -11.5160    10.1000 hn         1 KDC       0.367000
     26 H3          96.8080   -13.7000     8.7030 ha         1 KDC       0.136000
     27 H4          95.8960   -14.3800     6.4590 ha         1 KDC       0.135000
     28 H5          91.3630   -13.5720     4.8530 h5         1 KDC       0.060800
     29 H6          91.9420    -9.7260    11.6660 h1         1 KDC       0.078200
     30 H7          91.4020   -11.2830    12.3400 h1         1 KDC       0.078200
     31 H8          92.9630    -8.0260    13.4410 ha         1 KDC       0.133000
     32 H9          89.7180   -10.2810    16.3620 h4         1 KDC       0.022100
     33 H10         90.0330    -6.9050    17.3160 hc         1 KDC       0.046700
     34 H11         89.7790    -8.5160    18.0040 hc         1 KDC       0.046700
     35 H12         91.3580    -7.7310    18.1530 hc         1 KDC       0.046700
     36 H13         94.2640    -6.5020    14.7870 h1         1 KDC       0.039700
     37 H14         92.9320    -5.6680    13.9400 h1         1 KDC       0.039700
     38 H15         94.4160    -4.0260    15.1050 hc         1 KDC       0.050033
     39 H16         92.7860    -4.0030    15.8130 hc         1 KDC       0.050033
     40 H17         94.1150    -4.8360    16.6590 hc         1 KDC       0.050033
@<TRIPOS>BOND
     1     1     2 ar  
     2     1     3 ar  
     3     1     4 1   
     4     2     5 ar  
     5     2     6 1   
     6     3     7 1   
     7     3     8 ar  
     8     4     9 1   
     9     4    25 1   
    10     5    10 ar  
    11     5    11 1   
    12     6    12 1   
    13     7     9 2   
    14     8    10 ar  
    15     8    26 1   
    16     9    13 1   
    17    10    27 1   
    18    11    12 2   
    19    12    28 1   
    20    13    14 1   
    21    14    15 1   
    22    14    29 1   
    23    14    30 1   
    24    15    16 ar  
    25    15    17 ar  
    26    16    18 ar  
    27    16    31 1   
    28    17    19 ar  
    29    18    20 ar  
    30    18    21 1   
    31    19    20 ar  
    32    19    32 1   
    33    20    22 1   
    34    21    23 1   
    35    22    33 1   
    36    22    34 1   
    37    22    35 1   
    38    23    24 1   
    39    23    36 1   
    40    23    37 1   
    41    24    38 1   
    42    24    39 1   
    43    24    40 1   
@<TRIPOS>SUBSTRUCTURE
     1 KDC         1 TEMP              0 ****  ****    0 ROOT
