@<TRIPOS>MOLECULE
KDC
   40    43     1     0     0
SMALL
bcc


@<TRIPOS>ATOM
      1 C1          93.4220   -12.7230     9.0210 ca         1 KDC      -0.043200
      2 C2          92.9790   -13.3990     7.8900 ca         1 KDC      -0.066100
      3 C3          94.7770   -12.3960     9.1670 ca         1 KDC       0.067400
      4 N4          92.8130   -12.2470    10.1430 na         1 KDC      -0.242300
      5 C5          93.9240   -13.7470     6.9140 ca         1 KDC       0.110400
      6 S6          91.4150   -13.9420     7.4160 ss         1 KDC      -0.097100
      7 N7          94.9630   -11.7240    10.3500 nc         1 KDC      -0.527100
      8 C8          95.7160   -12.7430     8.1820 ca         1 KDC      -0.062000
      9 C9          93.7830   -11.6610    10.8990 cd         1 KDC       0.401700
     10 C10         95.2860   -13.4160     7.0630 ca         1 KDC      -0.102000
     11 N11         93.3970   -14.4220     5.8380 nc         1 KDC      -0.519100
     12 C12         92.1320   -14.5870     5.9700 cd         1 KDC       0.387100
     13 S13         93.4870   -11.0030    12.4880 ss         1 KDC      -0.160300
     14 C14         92.0730    -9.8740    12.1750 c3         1 KDC      -0.055600
     15 C15         91.6590    -9.3190    13.5060 ca         1 KDC       0.437600
     16 C16         92.3180    -8.2130    14.0310 ca         1 KDC      -0.320300
     17 N17         90.6790    -9.9480    14.1370 nb         1 KDC      -0.684000
     18 C18         91.9320    -7.7400    15.2810 ca         1 KDC       0.183100
     19 C19         90.3190    -9.4790    15.3290 ca         1 KDC       0.429200
     20 C20         90.8920    -8.3920    15.9630 ca         1 KDC      -0.217600
     21 O21         92.4830    -6.6940    15.8980 os         1 KDC      -0.317900
     22 C22         90.4300    -7.9280    17.3070 c3         1 KDC      -0.031800
     23 C23         93.5460    -5.9860    15.2650 c3         1 KDC       0.139400
     24 C24         93.9910    -4.8870    16.1990 c3         1 KDC      -0.095100
     25 H1          91.8430   -12.3590    10.3960 hn         1 KDC       0.316700
     26 H3          96.7580   -12.4830     8.3080 ha         1 KDC       0.154000
     27 H4          95.9830   -13.7000     6.2860 ha         1 KDC       0.153000
     28 H5          91.5090   -15.0940     5.2450 h5         1 KDC       0.060800
     29 H6          92.3960    -9.0930    11.4890 h1         1 KDC       0.078200
     30 H7          91.2470   -10.4310    11.7380 h1         1 KDC       0.078200
     31 H8          93.1110    -7.7500    13.4590 ha         1 KDC       0.151000
     32 H9          89.5100   -10.0080    15.8250 h4         1 KDC       0.022100
     33 H10         90.0660    -6.9000    17.2750 hc         1 KDC       0.046700
     34 H11         89.6200    -8.5570    17.6720 hc         1 KDC       0.046700
     35 H12         91.2350    -7.9600    18.0430 hc         1 KDC       0.046700
     36 H13         94.3740    -6.6680    15.0510 h1         1 KDC       0.039700
     37 H14         93.2020    -5.5680    14.3140 h1         1 KDC       0.039700
     38 H15         94.8040    -4.3290    15.7360 hc         1 KDC       0.050033
     39 H16         93.1810    -4.1880    16.4070 hc         1 KDC       0.050033
     40 H17         94.3560    -5.2900    17.1430 hc         1 KDC       0.050033
@<TRIPOS>BOND
     1     1     2 ar  
     2     1     3 ar  
     3     1     4 1   
     4     2     5 ar  
     5     2     6 1   
     6     3     7 1   
     7     3     8 ar  
     8     4     9 1   
     9     4    25 1   
    10     5    10 ar  
    11     5    11 1   
    12     6    12 1   
    13     7     9 2   
    14     8    10 ar  
    15     8    26 1   
    16     9    13 1   
    17    10    27 1   
    18    11    12 2   
    19    12    28 1   
    20    13    14 1   
    21    14    15 1   
    22    14    29 1   
    23    14    30 1   
    24    15    16 ar  
    25    15    17 ar  
    26    16    18 ar  
    27    16    31 1   
    28    17    19 ar  
    29    18    20 ar  
    30    18    21 1   
    31    19    20 ar  
    32    19    32 1   
    33    20    22 1   
    34    21    23 1   
    35    22    33 1   
    36    22    34 1   
    37    22    35 1   
    38    23    24 1   
    39    23    36 1   
    40    23    37 1   
    41    24    38 1   
    42    24    39 1   
    43    24    40 1   
@<TRIPOS>SUBSTRUCTURE
     1 KDC         1 TEMP              0 ****  ****    0 ROOT
