@<TRIPOS>MOLECULE
KDD
   25    25     1     0     0
SMALL
No Charge or Current Charge


@<TRIPOS>ATOM
      1 O1A         -3.7730     1.0790    -0.1080 o          1 KDD      -0.698000
      2 C1          -2.5690     1.3110    -0.0500 c          1 KDD       0.723200
      3 O1B         -2.1320     2.4500     0.0810 o          1 KDD      -0.698000
      4 C2          -1.5790     0.1360    -0.1440 ce         1 KDD       0.055900
      5 O6          -0.2280     0.4720    -0.0690 os         1 KDD      -0.320100
      6 C6           0.7610    -0.5730     0.0950 c6         1 KDD       0.125300
      7 C7           2.1620     0.0380    -0.2420 c3         1 KDD       0.171300
      8 C8           2.5220     1.2800     0.6190 c3         1 KDD       0.123600
      9 O8           3.8570     1.7290     0.3130 oh         1 KDD      -0.663000
     10 O7           3.2230    -0.9240    -0.0840 oh         1 KDD      -0.655000
     11 C5           0.3970    -1.8040    -0.7730 c6         1 KDD      -0.096400
     12 C3          -1.9730    -1.1610    -0.2880 c2         1 KDD      -0.446200
     13 C4          -1.0150    -2.3100    -0.4160 c6         1 KDD       0.224500
     14 H6           0.7630    -0.8730     1.1530 h1         1 KDD       0.041700
     15 H7           2.1210     0.3700    -1.2890 h1         1 KDD       0.090700
     16 H8           1.7970     2.0800     0.4170 h1         1 KDD       0.040700
     17 H8A          2.4400     1.0180     1.6830 h1         1 KDD       0.040700
     18 HO8          4.0140     2.5490     0.8340 ho         1 KDD       0.431000
     19 HO7          4.0300    -0.3710     0.0330 ho         1 KDD       0.431000
     20 H5           0.4270    -1.5250    -1.8340 hc         1 KDD       0.053200
     21 H5A          1.1310    -2.6100    -0.6390 hc         1 KDD       0.053200
     22 H3          -3.0320    -1.4160    -0.3510 ha         1 KDD       0.202000
     23 O61         -1.0180    -2.9680     0.8370 oh         1 KDD      -0.691000
     24 H4          -1.3580    -2.9990    -1.2020 h1         1 KDD       0.020700
     25 H12         -1.2730    -2.2710     1.4770 ho         1 KDD       0.440000
@<TRIPOS>BOND
     1     1     2 1   
     2     2     3 1   
     3     2     4 1   
     4     4     5 1   
     5     4    12 2   
     6     5     6 1   
     7     6     7 1   
     8     6    11 1   
     9     6    14 1   
    10     7     8 1   
    11     7    10 1   
    12     7    15 1   
    13     8     9 1   
    14     8    16 1   
    15     8    17 1   
    16     9    18 1   
    17    10    19 1   
    18    11    13 1   
    19    11    20 1   
    20    11    21 1   
    21    12    13 1   
    22    12    22 1   
    23    13    23 1   
    24    13    24 1   
    25    23    25 1   
@<TRIPOS>SUBSTRUCTURE
     1 KDD         1 TEMP              0 ****  ****    0 ROOT
