@<TRIPOS>MOLECULE
KDD
   25    25     1     0     0
SMALL
abcg2


@<TRIPOS>ATOM
      1 O1A         -3.6270     1.0920     0.0380 o          1 KDD      -0.698000
      2 C1          -2.4180     1.3700    -0.0560 c          1 KDD       0.723200
      3 O1B         -1.8980     2.4970    -0.1040 o          1 KDD      -0.698000
      4 C2          -1.4590     0.1830    -0.1220 ce         1 KDD       0.055900
      5 O6          -0.1630     0.5470    -0.1940 os         1 KDD      -0.320100
      6 C6           0.7970    -0.4780     0.0240 c6         1 KDD       0.125300
      7 C7           2.1620     0.1130    -0.3400 c3         1 KDD       0.171300
      8 C8           2.4750     1.3370     0.5070 c3         1 KDD       0.123600
      9 O8           3.7080     1.8740     0.0870 oh         1 KDD      -0.663000
     10 O7           3.1700    -0.8650    -0.2390 oh         1 KDD      -0.655000
     11 C5           0.4340    -1.7220    -0.7660 c6         1 KDD      -0.096400
     12 C3          -1.8620    -1.0920    -0.1260 c2         1 KDD      -0.446200
     13 C4          -0.9170    -2.2400    -0.2980 c6         1 KDD       0.224500
     14 H6           0.7910    -0.7320     1.0960 h1         1 KDD       0.041700
     15 H7           2.1390     0.4080    -1.3960 h1         1 KDD       0.090700
     16 H8           1.6630     2.0640     0.4080 h1         1 KDD       0.040700
     17 H8A          2.5050     1.0340     1.5660 h1         1 KDD       0.040700
     18 HO8          3.8840     2.6580     0.6150 ho         1 KDD       0.431000
     19 HO7          3.2570    -1.1250     0.6850 ho         1 KDD       0.431000
     20 H5           0.3820    -1.4820    -1.8320 hc         1 KDD       0.053200
     21 H5A          1.1970    -2.4910    -0.6440 hc         1 KDD       0.053200
     22 H3          -2.9220    -1.2920    -0.0400 ha         1 KDD       0.202000
     23 O61         -0.7120    -2.9690     0.9060 oh         1 KDD      -0.691000
     24 H4          -1.3250    -2.9110    -1.0670 h1         1 KDD       0.020700
     25 H12         -1.5630    -3.0720     1.3440 ho         1 KDD       0.440000
@<TRIPOS>BOND
     1     1     2 1   
     2     2     3 1   
     3     2     4 1   
     4     4     5 1   
     5     4    12 2   
     6     5     6 1   
     7     6     7 1   
     8     6    11 1   
     9     6    14 1   
    10     7     8 1   
    11     7    10 1   
    12     7    15 1   
    13     8     9 1   
    14     8    16 1   
    15     8    17 1   
    16     9    18 1   
    17    10    19 1   
    18    11    13 1   
    19    11    20 1   
    20    11    21 1   
    21    12    13 1   
    22    12    22 1   
    23    13    23 1   
    24    13    24 1   
    25    23    25 1   
@<TRIPOS>SUBSTRUCTURE
     1 KDD         1 TEMP              0 ****  ****    0 ROOT
