@<TRIPOS>MOLECULE
KDE
   36    36     1     0     0
SMALL
abcg2


@<TRIPOS>ATOM
      1 O1A         -3.0200     0.9100     1.5150 o          1 KDE      -0.692500
      2 C1          -1.8130     0.6430     1.6610 c          1 KDE       0.722000
      3 O1B         -1.1840     0.5060     2.7200 o          1 KDE      -0.692500
      4 C2          -1.0190     0.5230     0.3230 c6         1 KDE       0.249000
      5 O2          -1.6710    -0.3030    -0.6060 os         1 KDE      -0.488000
      6 C9          -1.9480    -1.6210    -0.1750 c3         1 KDE       0.198800
      7 C10         -2.6450    -2.3330    -1.2880 c2         1 KDE      -0.182200
      8 C11         -2.2410    -3.4900    -1.7950 c2         1 KDE      -0.359000
      9 C3          -0.9120     1.9020    -0.3310 c6         1 KDE      -0.111400
     10 C4           0.0680     1.8970    -1.4970 c6         1 KDE       0.122300
     11 O4           0.2870     3.1910    -2.0180 oh         1 KDE      -0.690000
     12 C5           1.4190     1.3580    -1.0370 c6         1 KDE       0.160300
     13 O5           2.0220     2.2110    -0.0960 oh         1 KDE      -0.693000
     14 C6           1.1870    -0.0210    -0.4370 c6         1 KDE       0.131300
     15 O6           0.2510     0.0130     0.6200 os         1 KDE      -0.447000
     16 C7           2.4370    -0.6920     0.1410 c3         1 KDE       0.199300
     17 O7           2.7800    -0.1740     1.4010 oh         1 KDE      -0.708000
     18 C8           2.2400    -2.2030     0.1940 c3         1 KDE       0.122600
     19 O8           3.4400    -2.8000     0.6230 oh         1 KDE      -0.652000
     20 H9          -1.0360    -2.1600     0.1030 h1         1 KDE       0.042200
     21 H9A         -2.6010    -1.6090     0.7080 h1         1 KDE       0.042200
     22 H10         -3.5500    -1.8630    -1.6640 ha         1 KDE       0.173000
     23 H11         -1.3440    -3.9870    -1.4430 ha         1 KDE       0.148500
     24 H11A        -2.7950    -3.9900    -2.5790 ha         1 KDE       0.148500
     25 H3          -1.9040     2.2190    -0.6610 hc         1 KDE       0.070200
     26 H3A         -0.5760     2.6200     0.4200 hc         1 KDE       0.070200
     27 H4          -0.3070     1.2270    -2.2830 h1         1 KDE       0.042700
     28 HO4         -0.5650     3.6130    -2.1700 ho         1 KDE       0.446000
     29 H5           2.0650     1.2240    -1.9190 h1         1 KDE       0.020700
     30 HO5          1.9740     3.1070    -0.4470 ho         1 KDE       0.504000
     31 H6           0.8250    -0.6460    -1.2660 h1         1 KDE       0.032700
     32 H7           3.2750    -0.4890    -0.5370 h1         1 KDE       0.056700
     33 HO7          1.9530    -0.0180     1.8740 ho         1 KDE       0.542000
     34 H8           1.4060    -2.4410     0.8690 h1         1 KDE       0.022700
     35 H8A          1.9520    -2.5510    -0.8080 h1         1 KDE       0.022700
     36 HO8          3.2970    -3.7490     0.6760 ho         1 KDE       0.425000
@<TRIPOS>BOND
     1     1     2 1   
     2     2     3 1   
     3     2     4 1   
     4     4     5 1   
     5     4     9 1   
     6     4    15 1   
     7     5     6 1   
     8     6     7 1   
     9     6    20 1   
    10     6    21 1   
    11     7     8 2   
    12     7    22 1   
    13     8    23 1   
    14     8    24 1   
    15     9    10 1   
    16     9    25 1   
    17     9    26 1   
    18    10    11 1   
    19    10    12 1   
    20    10    27 1   
    21    11    28 1   
    22    12    13 1   
    23    12    14 1   
    24    12    29 1   
    25    13    30 1   
    26    14    15 1   
    27    14    16 1   
    28    14    31 1   
    29    16    17 1   
    30    16    18 1   
    31    16    32 1   
    32    17    33 1   
    33    18    19 1   
    34    18    34 1   
    35    18    35 1   
    36    19    36 1   
@<TRIPOS>SUBSTRUCTURE
     1 KDE         1 TEMP              0 ****  ****    0 ROOT
