@<TRIPOS>MOLECULE
KDE
   36    36     1     0     0
SMALL
No Charge or Current Charge


@<TRIPOS>ATOM
      1 O1A         -3.1630     0.4920     1.7630 o          1 KDE      -0.692500
      2 C1          -1.9740     0.7970     1.7980 c          1 KDE       0.722000
      3 O1B         -1.3780     0.6460     2.8620 o          1 KDE      -0.692500
      4 C2          -1.1150     0.5750     0.4440 c6         1 KDE       0.249000
      5 O2          -1.7820    -0.2920    -0.5280 os         1 KDE      -0.488000
      6 C9          -2.0070    -1.6670    -0.1570 c3         1 KDE       0.198800
      7 C10         -2.5480    -2.3770    -1.3780 c2         1 KDE      -0.182200
      8 C11         -1.8460    -3.1910    -2.1860 c2         1 KDE      -0.359000
      9 C3          -0.9180     1.9770    -0.2060 c6         1 KDE      -0.111400
     10 C4           0.0380     1.9450    -1.4280 c6         1 KDE       0.122300
     11 O4           0.2970     3.2890    -1.8730 oh         1 KDE      -0.690000
     12 C5           1.3800     1.2460    -1.0700 c6         1 KDE       0.160300
     13 O5           2.1150     2.1050    -0.1740 oh         1 KDE      -0.693000
     14 C6           1.0770    -0.1490    -0.4410 c6         1 KDE       0.131300
     15 O6           0.2050     0.0000     0.7160 os         1 KDE      -0.447000
     16 C7           2.3860    -0.8870     0.0060 c3         1 KDE       0.199300
     17 O7           3.0990    -0.1040     0.9860 oh         1 KDE      -0.708000
     18 C8           2.1170    -2.3280     0.5400 c3         1 KDE       0.122600
     19 O8           3.3400    -3.0690     0.7220 oh         1 KDE      -0.652000
     20 H9          -1.0740    -2.1490     0.1650 h1         1 KDE       0.042200
     21 H9A         -2.7290    -1.7490     0.6650 h1         1 KDE       0.042200
     22 H10         -3.6020    -2.1730    -1.5730 ha         1 KDE       0.173000
     23 H11         -0.7910    -3.4040    -2.0080 ha         1 KDE       0.148500
     24 H11A        -2.3060    -3.6680    -3.0530 ha         1 KDE       0.148500
     25 H3          -1.8950     2.3780    -0.5070 hc         1 KDE       0.070200
     26 H3A         -0.5280     2.6680     0.5540 hc         1 KDE       0.070200
     27 H4          -0.4420     1.3680    -2.2330 h1         1 KDE       0.042700
     28 HO4         -0.5340     3.6200    -2.2820 ho         1 KDE       0.446000
     29 H5           1.9560     1.0980    -1.9960 h1         1 KDE       0.020700
     30 HO5          1.8350     3.0090    -0.4640 ho         1 KDE       0.504000
     31 H6           0.5810    -0.7800    -1.1920 h1         1 KDE       0.032700
     32 H7           3.0030    -0.9870    -0.8980 h1         1 KDE       0.056700
     33 HO7          2.8160     0.8300     0.7670 ho         1 KDE       0.542000
     34 H8           1.5660    -2.2660     1.4870 h1         1 KDE       0.022700
     35 H8A          1.4730    -2.8530    -0.1780 h1         1 KDE       0.022700
     36 HO8          3.0980    -3.9250     1.1400 ho         1 KDE       0.425000
@<TRIPOS>BOND
     1     1     2 1   
     2     2     3 1   
     3     2     4 1   
     4     4     5 1   
     5     4     9 1   
     6     4    15 1   
     7     5     6 1   
     8     6     7 1   
     9     6    20 1   
    10     6    21 1   
    11     7     8 2   
    12     7    22 1   
    13     8    23 1   
    14     8    24 1   
    15     9    10 1   
    16     9    25 1   
    17     9    26 1   
    18    10    11 1   
    19    10    12 1   
    20    10    27 1   
    21    11    28 1   
    22    12    13 1   
    23    12    14 1   
    24    12    29 1   
    25    13    30 1   
    26    14    15 1   
    27    14    16 1   
    28    14    31 1   
    29    16    17 1   
    30    16    18 1   
    31    16    32 1   
    32    17    33 1   
    33    18    19 1   
    34    18    34 1   
    35    18    35 1   
    36    19    36 1   
@<TRIPOS>SUBSTRUCTURE
     1 KDE         1 TEMP              0 ****  ****    0 ROOT
