@<TRIPOS>MOLECULE
KDF
   21    21     1     0     0
SMALL
No Charge or Current Charge


@<TRIPOS>ATOM
      1 O1B          3.1070     1.9420     0.2830 oh         1 KDF      -0.711000
      2 C1           2.6610     0.7860    -0.4570 c3         1 KDF       0.150600
      3 C2           1.4240     0.1100     0.2060 c5         1 KDF       0.193300
      4 O2           0.2350     0.9100     0.0340 os         1 KDF      -0.459000
      5 C3           0.9780    -1.2220    -0.4600 c5         1 KDF       0.127300
      6 O3           1.8450    -2.3320    -0.1870 oh         1 KDF      -0.732000
      7 C4          -0.4170    -1.3910     0.2030 c5         1 KDF      -0.120400
      8 O5          -1.1580     0.3250     1.8230 oh         1 KDF      -0.691000
      9 C6          -2.2070     0.3660    -0.4770 c          1 KDF       0.699000
     10 O6A         -2.1370     1.0550    -1.4900 o          1 KDF      -0.712000
     11 C5          -0.8960     0.0920     0.4300 c5         1 KDF       0.246000
     12 O6B         -3.2880    -0.0540    -0.0740 o          1 KDF      -0.712000
     13 H1B          3.8520     2.3380    -0.2260 ho         1 KDF       0.480000
     14 H1C1         2.4030     1.0650    -1.4870 h1         1 KDF       0.026700
     15 H1C2         3.4710     0.0460    -0.5100 h1         1 KDF       0.026700
     16 H2           1.6170    -0.0290     1.2790 h1         1 KDF       0.044700
     17 H3           0.8720    -1.0730    -1.5460 h1         1 KDF       0.066700
     18 HA           1.4280    -3.1300    -0.5890 ho         1 KDF       0.490000
     19 H4C1        -1.1000    -1.9630    -0.4360 hc         1 KDF       0.048700
     20 H4C2        -0.3460    -1.9360     1.1520 hc         1 KDF       0.048700
     21 H5          -2.0980     0.0610     1.9510 ho         1 KDF       0.489000
@<TRIPOS>BOND
     1     1     2 1   
     2     1    13 1   
     3     2     3 1   
     4     2    14 1   
     5     2    15 1   
     6     3     4 1   
     7     3     5 1   
     8     3    16 1   
     9     4    11 1   
    10     5     6 1   
    11     5     7 1   
    12     5    17 1   
    13     6    18 1   
    14     7    11 1   
    15     7    19 1   
    16     7    20 1   
    17     8    11 1   
    18     8    21 1   
    19     9    10 1   
    20     9    11 1   
    21     9    12 1   
@<TRIPOS>SUBSTRUCTURE
     1 KDF         1 TEMP              0 ****  ****    0 ROOT
