@<TRIPOS>MOLECULE
KDF
   21    21     1     0     0
SMALL
bcc


@<TRIPOS>ATOM
      1 O1B          2.8170     1.9450     0.1530 oh         1 KDF      -0.588800
      2 C1           2.2890     0.8610    -0.5760 c3         1 KDF       0.127400
      3 C2           1.4640    -0.0090     0.3430 c5         1 KDF       0.170100
      4 O2           0.3100     0.6750     0.7870 os         1 KDF      -0.412600
      5 C3           0.9760    -1.2840    -0.3500 c5         1 KDF       0.104100
      6 O3           1.9360    -2.3000    -0.1890 oh         1 KDF      -0.609800
      7 C4          -0.3560    -1.5250     0.3430 c5         1 KDF      -0.120400
      8 O5          -1.6080    -0.0630     1.8070 oh         1 KDF      -0.628800
      9 C6          -1.7120     0.5030    -0.5050 c          1 KDF       0.909600
     10 O6A         -1.2520     0.4470    -1.6530 o          1 KDF      -0.817300
     11 C5          -0.8690    -0.1200     0.6440 c5         1 KDF       0.199600
     12 O6B         -2.7880     1.0250    -0.1340 o          1 KDF      -0.817300
     13 H1B          3.3460     2.4790    -0.4460 ho         1 KDF       0.381000
     14 H1C1         1.6520     1.1950    -1.4060 h1         1 KDF       0.026700
     15 H1C2         3.0860     0.2380    -1.0050 h1         1 KDF       0.026700
     16 H2           2.0760    -0.3000     1.2100 h1         1 KDF       0.044700
     17 H3           0.8010    -1.0790    -1.4120 h1         1 KDF       0.066700
     18 HA           1.6980    -3.0300    -0.7660 ho         1 KDF       0.391000
     19 H4C1        -1.0560    -2.1140    -0.2510 hc         1 KDF       0.048700
     20 H4C2        -0.1810    -2.0530     1.2850 hc         1 KDF       0.048700
     21 H5          -2.3820     0.4760     1.5430 ho         1 KDF       0.450000
@<TRIPOS>BOND
     1     1     2 1   
     2     1    13 1   
     3     2     3 1   
     4     2    14 1   
     5     2    15 1   
     6     3     4 1   
     7     3     5 1   
     8     3    16 1   
     9     4    11 1   
    10     5     6 1   
    11     5     7 1   
    12     5    17 1   
    13     6    18 1   
    14     7    11 1   
    15     7    19 1   
    16     7    20 1   
    17     8    11 1   
    18     8    21 1   
    19     9    10 1   
    20     9    11 1   
    21     9    12 1   
@<TRIPOS>SUBSTRUCTURE
     1 KDF         1 TEMP              0 ****  ****    0 ROOT
