@<TRIPOS>MOLECULE
KDG
   21    20     1     0     0
SMALL
abcg2


@<TRIPOS>ATOM
      1 O1B         -0.3370    -0.1830     4.4630 oh         1 KDG      -0.714000
      2 C1           0.4490     0.0900     3.3260 c3         1 KDG       0.123600
      3 C2          -0.3960    -0.1220     2.0800 c3         1 KDG       0.129300
      4 O2          -1.5560     0.6810     2.0980 oh         1 KDG      -0.639000
      5 C3           0.4230     0.1190     0.8010 c3         1 KDG       0.142300
      6 O3           1.5960    -0.6690     0.7840 oh         1 KDG      -0.713000
      7 C4          -0.4090    -0.1140    -0.4490 c3         1 KDG      -0.222400
      8 O5           1.1980     1.0960    -1.7270 o          1 KDG      -0.557100
      9 C5           0.2630     0.3300    -1.7240 c          1 KDG       0.432100
     10 C6          -0.3340    -0.1930    -3.0610 c          1 KDG       0.648000
     11 O6A          0.3620    -0.0100    -4.0690 o          1 KDG      -0.696500
     12 O6B         -1.4520    -0.7290    -2.9700 o          1 KDG      -0.696500
     13 H1B          0.2240    -0.0930     5.2380 ho         1 KDG       0.488000
     14 H1C1         0.8200     1.1270     3.3310 h1         1 KDG       0.024700
     15 H1C2         1.3290    -0.5590     3.2810 h1         1 KDG       0.024700
     16 H2          -0.7590    -1.1590     2.0750 h1         1 KDG       0.076700
     17 HA          -1.2860     1.6050     2.1490 ho         1 KDG       0.433000
     18 H3           0.7720     1.1570     0.8170 h1         1 KDG       0.073700
     19 HB           1.3370    -1.5950     0.7270 ho         1 KDG       0.492000
     20 H4C1        -0.6920    -1.1690    -0.5300 hc         1 KDG       0.074700
     21 H4C2        -1.3600     0.4250    -0.3840 hc         1 KDG       0.074700
@<TRIPOS>BOND
     1     1     2 1   
     2     1    13 1   
     3     2     3 1   
     4     2    14 1   
     5     2    15 1   
     6     3     4 1   
     7     3     5 1   
     8     3    16 1   
     9     4    17 1   
    10     5     6 1   
    11     5     7 1   
    12     5    18 1   
    13     6    19 1   
    14     7     9 1   
    15     7    20 1   
    16     7    21 1   
    17     8     9 2   
    18     9    10 1   
    19    10    11 1   
    20    10    12 1   
@<TRIPOS>SUBSTRUCTURE
     1 KDG         1 TEMP              0 ****  ****    0 ROOT
