@<TRIPOS>MOLECULE
KDG
   21    20     1     0     0
SMALL
No Charge or Current Charge


@<TRIPOS>ATOM
      1 O1B         -0.1010     0.1010     4.5100 oh         1 KDG      -0.714000
      2 C1           0.5520    -0.0910     3.2390 c3         1 KDG       0.123600
      3 C2          -0.4720     0.0790     2.0830 c3         1 KDG       0.129300
      4 O2          -1.1670     1.3170     2.3080 oh         1 KDG      -0.639000
      5 C3           0.1910     0.0590     0.6640 c3         1 KDG       0.142300
      6 O3           0.9190    -1.1690     0.4870 oh         1 KDG      -0.713000
      7 C4          -0.8290     0.1950    -0.4950 c3         1 KDG      -0.222400
      8 O5           0.0040     1.7930    -2.1010 o          1 KDG      -0.557100
      9 C5          -0.1330     0.6020    -1.8070 c          1 KDG       0.432100
     10 C6           0.4360    -0.5980    -2.7270 c          1 KDG       0.648000
     11 O6A          0.4220    -0.4700    -3.9490 o          1 KDG      -0.696500
     12 O6B          0.8780    -1.5910    -2.1540 o          1 KDG      -0.696500
     13 H1B          0.5660    -0.0950     5.2100 ho         1 KDG       0.488000
     14 H1C1         1.3660     0.6370     3.1160 h1         1 KDG       0.024700
     15 H1C2         0.9930    -1.0960     3.1890 h1         1 KDG       0.024700
     16 H2          -1.1800    -0.7600     2.1380 h1         1 KDG       0.076700
     17 HA          -1.1790     1.3990     3.2900 ho         1 KDG       0.433000
     18 H3           0.8810     0.9150     0.6160 h1         1 KDG       0.073700
     19 HB           0.9330    -1.3800    -0.4900 ho         1 KDG       0.492000
     20 H4C1        -1.3190    -0.7770    -0.6240 hc         1 KDG       0.074700
     21 H4C2        -1.5700     0.9630    -0.2460 hc         1 KDG       0.074700
@<TRIPOS>BOND
     1     1     2 1   
     2     1    13 1   
     3     2     3 1   
     4     2    14 1   
     5     2    15 1   
     6     3     4 1   
     7     3     5 1   
     8     3    16 1   
     9     4    17 1   
    10     5     6 1   
    11     5     7 1   
    12     5    18 1   
    13     6    19 1   
    14     7     9 1   
    15     7    20 1   
    16     7    21 1   
    17     8     9 2   
    18     9    10 1   
    19    10    11 1   
    20    10    12 1   
@<TRIPOS>SUBSTRUCTURE
     1 KDG         1 TEMP              0 ****  ****    0 ROOT
