@<TRIPOS>MOLECULE
KDH
   51    54     1     0     0
SMALL
No Charge or Current Charge


@<TRIPOS>ATOM
      1 O1           1.4870     3.2210    -2.0720 oh         1 KDH      -0.531600
      2 C3           0.5870     3.2670    -1.0400 ca         1 KDH       0.105600
      3 C6           0.4710     4.4370    -0.2610 ca         1 KDH       0.096100
      4 O7           1.2680     5.5140    -0.5600 oh         1 KDH      -0.512100
      5 C9          -0.4600     4.4800     0.8040 ca         1 KDH       0.105600
      6 O10         -0.5960     5.6030     1.5780 oh         1 KDH      -0.531600
      7 C12         -1.2590     3.3560     1.0790 ca         1 KDH      -0.178500
      8 C14         -1.1430     2.1840     0.3040 ca         1 KDH      -0.055300
      9 C15         -2.0160     0.9610     0.6380 c6         1 KDH       0.212600
     10 C20         -2.9820    -0.9570    -0.5270 ca         1 KDH       0.222100
     11 C21         -3.5520    -1.4630    -1.7020 ca         1 KDH      -0.277000
     12 C24         -4.1850    -2.7090    -1.6900 ca         1 KDH       0.211100
     13 C26         -4.2490    -3.4550    -0.5100 ca         1 KDH      -0.277000
     14 C29         -3.6700    -2.9600     0.6650 ca         1 KDH       0.212100
     15 C31         -3.0220    -1.7090     0.6680 ca         1 KDH      -0.228300
     16 C33         -1.3730    -0.0170     1.6660 c6         1 KDH       0.141300
     17 C38          2.2470    -0.5550     0.6890 ca         1 KDH      -0.070600
     18 C39          3.5420    -0.0010     0.8200 ca         1 KDH      -0.129500
     19 C41          2.0850    -1.7100    -0.1130 ca         1 KDH      -0.129500
     20 C01         -2.3670    -1.1640     1.9470 c6         1 KDH      -0.007100
     21 O01         -2.3720     0.2770    -0.5860 os         1 KDH      -0.335100
     22 O02         -4.7450    -3.2010    -2.8260 oh         1 KDH      -0.530100
     23 O03         -3.7460    -3.7020     1.8040 oh         1 KDH      -0.532100
     24 C4          -0.2150     2.1490    -0.7600 ca         1 KDH      -0.178500
     25 O35         -0.1170    -0.5650     1.1910 os         1 KDH      -0.434100
     26 O37          1.1850     1.0840     2.0990 o          1 KDH      -0.473000
     27 C43          3.1870    -2.2810    -0.7660 ca         1 KDH       0.153100
     28 O44          3.0280    -3.3850    -1.5440 oh         1 KDH      -0.522100
     29 C46          4.4710    -1.7200    -0.6430 ca         1 KDH      -0.087900
     30 O47          5.5240    -2.2850    -1.3330 oh         1 KDH      -0.562100
     31 C49          4.6440    -0.5800     0.1710 ca         1 KDH       0.153100
     32 O50          5.8850    -0.0450     0.3650 oh         1 KDH      -0.522100
     33 HO1          1.4180     2.3460    -2.5120 ho         1 KDH       0.468500
     34 H21         -3.5020    -0.8750    -2.6140 ha         1 KDH       0.132000
     35 H33         -1.1970     0.5120     2.6140 h1         1 KDH       0.086700
     36 H4          -0.1140     1.2470    -1.3590 ha         1 KDH       0.126000
     37 HO7          1.8200     5.2430    -1.3270 ho         1 KDH       0.475000
     38 H01         -3.1540    -0.8010     2.6230 hc         1 KDH       0.070200
     39 H01A        -1.8460    -1.9650     2.4900 hc         1 KDH       0.070200
     40 HO03        -4.2310    -4.5270     1.5960 ho         1 KDH       0.470000
     41 HO10        -1.2830     5.4370     2.2580 ho         1 KDH       0.468500
     42 H12         -1.9710     3.3850     1.9010 ha         1 KDH       0.126000
     43 H15         -2.9520     1.3300     1.0810 h1         1 KDH       0.062700
     44 H26         -4.7480    -4.4200    -0.5170 ha         1 KDH       0.132000
     45 H39          3.6990     0.8790     1.4390 ha         1 KDH       0.158000
     46 H41          1.1070    -2.1680    -0.2380 ha         1 KDH       0.158000
     47 HO02        -4.6040    -2.5470    -3.5420 ho         1 KDH       0.469000
     48 HO44         3.9290    -3.5940    -1.8790 ho         1 KDH       0.478000
     49 HO47         6.0930    -1.5750    -1.7100 ho         1 KDH       0.455000
     50 HO50         6.5450    -0.7610     0.2460 ho         1 KDH       0.478000
     51 C36          1.0730     0.0870     1.3980 c          1 KDH       0.612700
@<TRIPOS>BOND
     1     1     2 1   
     2     1    33 1   
     3     2     3 ar  
     4     2    24 ar  
     5     3     4 1   
     6     3     5 ar  
     7     4    37 1   
     8     5     6 1   
     9     5     7 ar  
    10     6    41 1   
    11     7     8 ar  
    12     7    42 1   
    13     8     9 1   
    14     8    24 ar  
    15     9    16 1   
    16     9    21 1   
    17     9    43 1   
    18    10    11 ar  
    19    10    15 ar  
    20    10    21 1   
    21    11    12 ar  
    22    11    34 1   
    23    12    13 ar  
    24    12    22 1   
    25    13    14 ar  
    26    13    44 1   
    27    14    15 ar  
    28    14    23 1   
    29    15    20 1   
    30    16    20 1   
    31    16    25 1   
    32    16    35 1   
    33    17    18 ar  
    34    17    19 ar  
    35    17    51 1   
    36    18    31 ar  
    37    18    45 1   
    38    19    27 ar  
    39    19    46 1   
    40    20    38 1   
    41    20    39 1   
    42    22    47 1   
    43    23    40 1   
    44    24    36 1   
    45    25    51 1   
    46    26    51 2   
    47    27    28 1   
    48    27    29 ar  
    49    28    48 1   
    50    29    30 1   
    51    29    31 ar  
    52    30    49 1   
    53    31    32 1   
    54    32    50 1   
@<TRIPOS>SUBSTRUCTURE
     1 KDH         1 TEMP              0 ****  ****    0 ROOT
