@<TRIPOS>MOLECULE
KDH
   51    54     1     0     0
SMALL
abcg2


@<TRIPOS>ATOM
      1 O1           1.9250     2.7210    -1.7460 oh         1 KDH      -0.531600
      2 C3           0.8760     2.8470    -0.9010 ca         1 KDH       0.105600
      3 C6           0.8030     4.0490    -0.2000 ca         1 KDH       0.096100
      4 O7           1.7100     5.0410    -0.3460 oh         1 KDH      -0.512100
      5 C9          -0.2540     4.2490     0.6870 ca         1 KDH       0.105600
      6 O10         -0.2890     5.4360     1.3260 oh         1 KDH      -0.531600
      7 C12         -1.2020     3.2530     0.8790 ca         1 KDH      -0.178500
      8 C14         -1.1120     2.0540     0.1860 ca         1 KDH      -0.055300
      9 C15         -2.0620     0.9460     0.5390 c6         1 KDH       0.212600
     10 C20         -2.8880    -1.0370    -0.4930 ca         1 KDH       0.222100
     11 C21         -3.3490    -1.6170    -1.6730 ca         1 KDH      -0.277000
     12 C24         -3.9570    -2.8620    -1.6160 ca         1 KDH       0.211100
     13 C26         -4.1120    -3.5210    -0.3990 ca         1 KDH      -0.277000
     14 C29         -3.6370    -2.9210     0.7580 ca         1 KDH       0.212100
     15 C31         -3.0070    -1.6720     0.7380 ca         1 KDH      -0.228300
     16 C33         -1.5010     0.0720     1.6610 c6         1 KDH       0.141300
     17 C38          2.0160    -0.4840     0.7480 ca         1 KDH      -0.070600
     18 C39          3.2920    -0.0550     1.0920 ca         1 KDH      -0.129500
     19 C41          1.8120    -1.3350    -0.3340 ca         1 KDH      -0.129500
     20 C01         -2.4700    -1.0430     1.9900 c6         1 KDH      -0.007100
     21 O01         -2.3080     0.1770    -0.6240 os         1 KDH      -0.335100
     22 O02         -4.4310    -3.4810    -2.7160 oh         1 KDH      -0.530100
     23 O03         -3.7570    -3.5090     1.9630 oh         1 KDH      -0.532100
     24 C4          -0.0780     1.8550    -0.7190 ca         1 KDH      -0.178500
     25 O35         -0.2810    -0.5030     1.1890 os         1 KDH      -0.434100
     26 O37          1.0080     0.8040     2.4720 o          1 KDH      -0.473000
     27 C43          2.9020    -1.7480    -1.0880 ca         1 KDH       0.153100
     28 O44          2.6950    -2.5680    -2.1320 oh         1 KDH      -0.522100
     29 C46          4.1850    -1.3110    -0.7580 ca         1 KDH      -0.087900
     30 O47          5.2600    -1.7460    -1.4850 oh         1 KDH      -0.562100
     31 C49          4.3810    -0.4720     0.3390 ca         1 KDH       0.153100
     32 O50          5.6090    -0.0550     0.6840 oh         1 KDH      -0.522100
     33 HO1          1.9560     1.8350    -2.1220 ho         1 KDH       0.468500
     34 H21         -3.2310    -1.0920    -2.6130 ha         1 KDH       0.132000
     35 H33         -1.3210     0.6890     2.5420 h1         1 KDH       0.086700
     36 H4          -0.0040     0.9350    -1.2860 ha         1 KDH       0.126000
     37 HO7          2.4180     4.7600    -0.9360 ho         1 KDH       0.475000
     38 H01         -3.2790    -0.6170     2.5920 hc         1 KDH       0.070200
     39 H01A        -1.9730    -1.7770     2.6280 hc         1 KDH       0.070200
     40 HO03        -4.1770    -4.3730     1.8770 ho         1 KDH       0.470000
     41 HO10        -1.0560     5.4750     1.9080 ho         1 KDH       0.468500
     42 H12         -2.0090     3.4150     1.5860 ha         1 KDH       0.126000
     43 H15         -3.0070     1.3710     0.9050 h1         1 KDH       0.062700
     44 H26         -4.6010    -4.4890    -0.3630 ha         1 KDH       0.132000
     45 H39          3.4470     0.6060     1.9350 ha         1 KDH       0.158000
     46 H41          0.8230    -1.6730    -0.6110 ha         1 KDH       0.158000
     47 HO02        -4.2790    -2.9370    -3.4960 ho         1 KDH       0.469000
     48 HO44         3.5380    -2.8190    -2.5290 ho         1 KDH       0.478000
     49 HO47         5.4470    -1.1300    -2.2070 ho         1 KDH       0.455000
     50 HO50         6.2700    -0.4580     0.1070 ho         1 KDH       0.478000
     51 C36          0.8820     0.0200     1.5650 c          1 KDH       0.612700
@<TRIPOS>BOND
     1     1     2 1   
     2     1    33 1   
     3     2     3 ar  
     4     2    24 ar  
     5     3     4 1   
     6     3     5 ar  
     7     4    37 1   
     8     5     6 1   
     9     5     7 ar  
    10     6    41 1   
    11     7     8 ar  
    12     7    42 1   
    13     8     9 1   
    14     8    24 ar  
    15     9    16 1   
    16     9    21 1   
    17     9    43 1   
    18    10    11 ar  
    19    10    15 ar  
    20    10    21 1   
    21    11    12 ar  
    22    11    34 1   
    23    12    13 ar  
    24    12    22 1   
    25    13    14 ar  
    26    13    44 1   
    27    14    15 ar  
    28    14    23 1   
    29    15    20 1   
    30    16    20 1   
    31    16    25 1   
    32    16    35 1   
    33    17    18 ar  
    34    17    19 ar  
    35    17    51 1   
    36    18    31 ar  
    37    18    45 1   
    38    19    27 ar  
    39    19    46 1   
    40    20    38 1   
    41    20    39 1   
    42    22    47 1   
    43    23    40 1   
    44    24    36 1   
    45    25    51 1   
    46    26    51 2   
    47    27    28 1   
    48    27    29 ar  
    49    28    48 1   
    50    29    30 1   
    51    29    31 ar  
    52    30    49 1   
    53    31    32 1   
    54    32    50 1   
@<TRIPOS>SUBSTRUCTURE
     1 KDH         1 TEMP              0 ****  ****    0 ROOT
