@<TRIPOS>MOLECULE
KDI
   59    61     1     0     0
SMALL
No Charge or Current Charge


@<TRIPOS>ATOM
      1 C1          -7.0060    -0.8550    -3.2970 c3         1 KDI       0.150100
      2 N2          -5.9280    -1.4050    -2.4480 n3         1 KDI      -0.707600
      3 C3          -6.3750    -1.6800    -1.0470 c6         1 KDI       0.132800
      4 C4          -4.6950    -0.5570    -2.4520 c6         1 KDI       0.132800
      5 C5          -3.5580    -1.1680    -1.5710 c6         1 KDI       0.207300
      6 N6          -3.9960    -1.4300    -0.1670 n3         1 KDI      -0.748500
      7 S7          -3.9920    -0.1100     0.9150 sy         1 KDI       1.170600
      8 O8          -5.0470     0.8210     0.5040 o          1 KDI      -0.536500
      9 O9          -3.9550    -0.7050     2.2550 o          1 KDI      -0.536500
     10 C10         -2.3740     0.6290     0.6180 ca         1 KDI      -0.300500
     11 C11         -2.2620     1.8620    -0.0530 ca         1 KDI      -0.016500
     12 C12         -0.9950     2.4230    -0.2900 ca         1 KDI      -0.121500
     13 C13          0.1970     1.7730     0.1340 cp         1 KDI      -0.061500
     14 C14          0.0520     0.5260     0.8030 ca         1 KDI      -0.121500
     15 C15         -1.2120    -0.0380     1.0430 ca         1 KDI      -0.016500
     16 C16          1.5580     2.3750    -0.1200 cp         1 KDI       0.255500
     17 C17          1.7510     3.7700    -0.4140 ca         1 KDI       0.400900
     18 N18          2.9730     4.3310    -0.6460 nb         1 KDI      -0.749000
     19 C19          4.0020     3.4820    -0.5810 ca         1 KDI       0.640900
     20 C20          3.8700     2.0890    -0.2730 ca         1 KDI       0.162500
     21 N21          2.6310     1.5360    -0.0420 nb         1 KDI      -0.612000
     22 C22          5.1030     1.2020    -0.1770 c          1 KDI       0.525600
     23 O23          6.2560     1.6120    -0.2800 o          1 KDI      -0.645100
     24 N24          4.8450    -0.1330     0.0560 ns         1 KDI      -0.478900
     25 C25          5.8650    -1.1710     0.1950 c3         1 KDI       0.107000
     26 C27          6.4600    -6.0370     1.0150 c3         1 KDI       0.146900
     27 C30          5.2390    -2.5520     0.4600 c3         1 KDI      -0.101400
     28 N31          5.1340     4.1600    -0.8460 nv         1 KDI      -1.051900
     29 C6          -5.2290    -2.2700    -0.1590 c6         1 KDI       0.207300
     30 C28          6.2960    -3.6600     0.6100 c3         1 KDI       0.162600
     31 O29          5.6020    -4.8940     0.8510 os         1 KDI      -0.455000
     32 H11C        -7.3430     0.1200    -2.9210 h1         1 KDI       0.034033
     33 H12C        -6.6570    -0.7240    -4.3300 h1         1 KDI       0.034033
     34 H13C        -7.8690    -1.5340    -3.3150 h1         1 KDI       0.034033
     35 H31C        -6.7550    -0.7590    -0.5820 h1         1 KDI       0.041450
     36 H32C        -7.2110    -2.3950    -1.0530 h1         1 KDI       0.041450
     37 H41C        -4.3180    -0.4470    -3.4790 h1         1 KDI       0.041450
     38 H42C        -4.9270     0.4560    -2.0910 h1         1 KDI       0.041450
     39 H61C        -5.6010    -2.4240     0.8650 h1         1 KDI       0.074700
     40 H62C        -4.9900    -3.2690    -0.5510 h1         1 KDI       0.074700
     41 H51C        -3.2590    -2.1180    -2.0380 h1         1 KDI       0.074700
     42 H52C        -2.6710    -0.5220    -1.6180 h1         1 KDI       0.074700
     43 H11         -3.1500     2.3890    -0.3980 ha         1 KDI       0.135000
     44 H15         -1.2830    -0.9970     1.5550 ha         1 KDI       0.135000
     45 H12         -0.9500     3.3670    -0.8240 ha         1 KDI       0.122000
     46 H14          0.9300    -0.0130     1.1490 ha         1 KDI       0.122000
     47 H17          0.9070     4.4550    -0.4530 h4         1 KDI       0.031100
     48 H311         5.0810     5.1620    -0.7090 hn         1 KDI       0.522000
     49 H312         6.0070     3.6980    -0.5970 hn         1 KDI       0.522000
     50 H24          3.8640    -0.3820     0.1380 hn         1 KDI       0.342500
     51 H251         6.4610    -1.2070    -0.7270 h1         1 KDI       0.052700
     52 H252         6.5320    -0.9030     1.0260 h1         1 KDI       0.052700
     53 H301         4.6350    -2.5060     1.3740 hc         1 KDI       0.059200
     54 H302         4.5650    -2.8080    -0.3670 hc         1 KDI       0.059200
     55 H271         5.8620    -6.9390     1.1950 h1         1 KDI       0.030033
     56 H272         7.0660    -6.2020     0.1140 h1         1 KDI       0.030033
     57 H273         7.1360    -5.8980     1.8690 h1         1 KDI       0.030033
     58 H281         6.8950    -3.7250    -0.3090 h1         1 KDI       0.023200
     59 H282         6.9660    -3.4200     1.4470 h1         1 KDI       0.023200
@<TRIPOS>BOND
     1     1     2 1   
     2     1    32 1   
     3     1    33 1   
     4     1    34 1   
     5     2     3 1   
     6     2     4 1   
     7     3    29 1   
     8     3    35 1   
     9     3    36 1   
    10     4     5 1   
    11     4    37 1   
    12     4    38 1   
    13     5     6 1   
    14     5    41 1   
    15     5    42 1   
    16     6     7 1   
    17     6    29 1   
    18     7     8 2   
    19     7     9 2   
    20     7    10 1   
    21    10    11 ar  
    22    10    15 ar  
    23    11    12 ar  
    24    11    43 1   
    25    12    13 ar  
    26    12    45 1   
    27    13    14 ar  
    28    13    16 1   
    29    14    15 ar  
    30    14    46 1   
    31    15    44 1   
    32    16    17 ar  
    33    16    21 ar  
    34    17    18 ar  
    35    17    47 1   
    36    18    19 ar  
    37    19    20 ar  
    38    19    28 1   
    39    20    21 ar  
    40    20    22 1   
    41    22    23 2   
    42    22    24 1   
    43    24    25 1   
    44    24    50 1   
    45    25    27 1   
    46    25    51 1   
    47    25    52 1   
    48    26    31 1   
    49    26    55 1   
    50    26    56 1   
    51    26    57 1   
    52    27    30 1   
    53    27    53 1   
    54    27    54 1   
    55    28    48 1   
    56    28    49 1   
    57    29    39 1   
    58    29    40 1   
    59    30    31 1   
    60    30    58 1   
    61    30    59 1   
@<TRIPOS>SUBSTRUCTURE
     1 KDI         1 TEMP              0 ****  ****    0 ROOT
