@<TRIPOS>MOLECULE
KDI
   59    61     1     0     0
SMALL
abcg2


@<TRIPOS>ATOM
      1 C1          -3.3430    -1.4270    -3.5560 c3         1 KDI       0.150100
      2 N2          -4.0610    -1.6370    -2.3200 n3         1 KDI      -0.707600
      3 C3          -4.6220    -0.4020    -1.8120 c6         1 KDI       0.132800
      4 C4          -3.2290    -2.2690    -1.3160 c6         1 KDI       0.132800
      5 C5          -4.0380    -2.5770    -0.0690 c6         1 KDI       0.207300
      6 N6          -4.7160    -1.3910     0.4510 n3         1 KDI      -0.748500
      7 S7          -4.1270    -0.6100     1.7660 sy         1 KDI       1.170600
      8 O8          -5.1290     0.3660     2.1630 o          1 KDI      -0.536500
      9 O9          -3.7050    -1.6320     2.7120 o          1 KDI      -0.536500
     10 C10         -2.6780     0.2860     1.2790 ca         1 KDI      -0.300500
     11 C11         -2.8090     1.5610     0.7450 ca         1 KDI      -0.016500
     12 C12         -1.6820     2.2370     0.3120 ca         1 KDI      -0.121500
     13 C13         -0.4130     1.6620     0.4160 cp         1 KDI      -0.061500
     14 C14         -0.3080     0.3800     0.9600 ca         1 KDI      -0.121500
     15 C15         -1.4270    -0.3070     1.3920 ca         1 KDI      -0.016500
     16 C16          0.7950     2.3740    -0.0260 cp         1 KDI       0.255500
     17 C17          0.8420     3.7520    -0.2600 ca         1 KDI       0.400900
     18 N18          1.9350     4.3720    -0.6430 nb         1 KDI      -0.749000
     19 C19          3.0560     3.6590    -0.8170 ca         1 KDI       0.640900
     20 C20          3.0270     2.2590    -0.5650 ca         1 KDI       0.162500
     21 N21          1.9120     1.6770    -0.1840 nb         1 KDI      -0.612000
     22 C22          4.2340     1.3900    -0.7080 c          1 KDI       0.525600
     23 O23          5.3220     1.8430    -1.0600 o          1 KDI      -0.645100
     24 N24          4.0380     0.1030    -0.4220 ns         1 KDI      -0.478900
     25 C25          5.0870    -0.8900    -0.4920 c3         1 KDI       0.107000
     26 C27          6.1410    -5.4920     0.5660 c3         1 KDI       0.146900
     27 C30          4.5900    -2.2160     0.0600 c3         1 KDI      -0.101400
     28 N31          4.1410     4.3200    -1.2200 nv         1 KDI      -1.051900
     29 C6          -5.4620    -0.6630    -0.5740 c6         1 KDI       0.207300
     30 C28          5.6790    -3.2690     0.0120 c3         1 KDI       0.162600
     31 O29          5.1850    -4.4640     0.5630 os         1 KDI      -0.455000
     32 H11C        -2.4850    -0.7450    -3.4510 h1         1 KDI       0.034033
     33 H12C        -2.9670    -2.3790    -3.9350 h1         1 KDI       0.034033
     34 H13C        -4.0120    -1.0060    -4.3080 h1         1 KDI       0.034033
     35 H31C        -3.8390     0.3440    -1.5920 h1         1 KDI       0.041450
     36 H32C        -5.2680     0.0390    -2.5750 h1         1 KDI       0.041450
     37 H41C        -2.8410    -3.2110    -1.7130 h1         1 KDI       0.041450
     38 H42C        -2.3550    -1.6490    -1.0500 h1         1 KDI       0.041450
     39 H61C        -5.8520     0.2700    -0.1730 h1         1 KDI       0.074700
     40 H62C        -6.3240    -1.2790    -0.8430 h1         1 KDI       0.074700
     41 H51C        -4.8140    -3.3100    -0.3060 h1         1 KDI       0.074700
     42 H52C        -3.4070    -3.0240     0.6970 h1         1 KDI       0.074700
     43 H11         -3.7770     2.0340     0.6530 ha         1 KDI       0.135000
     44 H15         -1.3120    -1.2940     1.8200 ha         1 KDI       0.135000
     45 H12         -1.8140     3.2210    -0.1170 ha         1 KDI       0.122000
     46 H14          0.6640    -0.0830     1.0650 ha         1 KDI       0.122000
     47 H17         -0.0310     4.3780    -0.1160 h4         1 KDI       0.031100
     48 H311         4.0940     5.3170    -1.3400 hn         1 KDI       0.522000
     49 H312         5.0180     3.8370    -1.3300 hn         1 KDI       0.522000
     50 H24          3.1040    -0.1790    -0.1640 hn         1 KDI       0.342500
     51 H251         5.4200    -1.0130    -1.5270 h1         1 KDI       0.052700
     52 H252         5.9540    -0.5480     0.0810 h1         1 KDI       0.052700
     53 H301         4.2600    -2.0800     1.0940 hc         1 KDI       0.059200
     54 H302         3.7260    -2.5560    -0.5180 hc         1 KDI       0.059200
     55 H271         5.6970    -6.3670     1.0390 h1         1 KDI       0.030033
     56 H272         6.4530    -5.7690    -0.4490 h1         1 KDI       0.030033
     57 H273         7.0410    -5.2150     1.1290 h1         1 KDI       0.030033
     58 H281         6.0050    -3.4250    -1.0260 h1         1 KDI       0.023200
     59 H282         6.5610    -2.9230     0.5700 h1         1 KDI       0.023200
@<TRIPOS>BOND
     1     1     2 1   
     2     1    32 1   
     3     1    33 1   
     4     1    34 1   
     5     2     3 1   
     6     2     4 1   
     7     3    29 1   
     8     3    35 1   
     9     3    36 1   
    10     4     5 1   
    11     4    37 1   
    12     4    38 1   
    13     5     6 1   
    14     5    41 1   
    15     5    42 1   
    16     6     7 1   
    17     6    29 1   
    18     7     8 2   
    19     7     9 2   
    20     7    10 1   
    21    10    11 ar  
    22    10    15 ar  
    23    11    12 ar  
    24    11    43 1   
    25    12    13 ar  
    26    12    45 1   
    27    13    14 ar  
    28    13    16 1   
    29    14    15 ar  
    30    14    46 1   
    31    15    44 1   
    32    16    17 ar  
    33    16    21 ar  
    34    17    18 ar  
    35    17    47 1   
    36    18    19 ar  
    37    19    20 ar  
    38    19    28 1   
    39    20    21 ar  
    40    20    22 1   
    41    22    23 2   
    42    22    24 1   
    43    24    25 1   
    44    24    50 1   
    45    25    27 1   
    46    25    51 1   
    47    25    52 1   
    48    26    31 1   
    49    26    55 1   
    50    26    56 1   
    51    26    57 1   
    52    27    30 1   
    53    27    53 1   
    54    27    54 1   
    55    28    48 1   
    56    28    49 1   
    57    29    39 1   
    58    29    40 1   
    59    30    31 1   
    60    30    58 1   
    61    30    59 1   
@<TRIPOS>SUBSTRUCTURE
     1 KDI         1 TEMP              0 ****  ****    0 ROOT
