@<TRIPOS>MOLECULE
KDJ
   48    48     1     0     0
SMALL
bcc


@<TRIPOS>ATOM
      1 N15         -1.7280     0.8200     0.2400 ns         1 KDJ      -0.479900
      2 C3           1.9350     0.7770    -0.6100 c6         1 KDJ       0.208100
      3 C4           0.6810     1.2400     0.1310 c6         1 KDJ       0.199100
      4 C5          -0.4780     0.3060    -0.2710 c6         1 KDJ       0.055700
      5 C6          -0.1860    -1.1470     0.1560 c6         1 KDJ       0.199100
      6 C1           1.1000    -1.5840    -0.5620 c6         1 KDJ       0.208100
      7 C2           2.2680    -0.6620    -0.1910 c6         1 KDJ       0.177100
      8 O75         -5.6890     1.8170    -2.0000 o          1 KDJ      -0.977833
      9 PB5         -5.7680     1.3110    -0.5610 p5         1 KDJ       1.204700
     10 O85         -6.5930     2.2170     0.3610 o          1 KDJ      -0.977833
     11 O95         -6.0700    -0.1740    -0.4020 o          1 KDJ      -0.977833
     12 C45         -4.0280     1.5560     0.1290 c3         1 KDJ       0.174400
     13 F55         -3.6870     2.8920    -0.0670 f          1 KDJ      -0.291800
     14 F65         -4.0450     1.4080     1.4940 f          1 KDJ      -0.291800
     15 C25         -2.8580     0.7570    -0.4530 c          1 KDJ       0.683100
     16 O35         -2.9960     0.2210    -1.5490 o          1 KDJ      -0.730100
     17 O14          0.3590     2.5730    -0.1660 os         1 KDJ      -0.567700
     18 PA4         -0.0530     3.5890     1.1120 p5         1 KDJ       1.322400
     19 O34          1.2340     3.9200     1.8590 o          1 KDJ      -0.974500
     20 O44         -0.6790     4.7720     0.3860 o          1 KDJ      -0.974500
     21 O24         -1.0260     2.7690     1.9870 o          1 KDJ      -0.974500
     22 O13          3.0060     1.6400    -0.3820 os         1 KDJ      -0.528700
     23 PA3          3.8950     2.1730    -1.6990 p5         1 KDJ       1.326400
     24 O33          4.3730     0.9290    -2.4500 o          1 KDJ      -0.994500
     25 O43          2.9550     3.0380    -2.5440 o          1 KDJ      -0.994500
     26 O23          5.0110     2.9650    -1.0160 o          1 KDJ      -0.994500
     27 O12          2.5010    -0.7030     1.1930 os         1 KDJ      -0.570200
     28 PA2          3.9120    -1.2310     1.9270 p5         1 KDJ       1.358900
     29 O32          4.9400    -1.4970     0.8320 o          1 KDJ      -0.996500
     30 O42          4.2820    -0.0720     2.8600 o          1 KDJ      -0.996500
     31 O22          3.5010    -2.4800     2.7120 o          1 KDJ      -0.996500
     32 O11          1.3950    -2.9200    -0.3000 os         1 KDJ      -0.528700
     33 PA1          1.8330    -3.9150    -1.5720 p5         1 KDJ       1.326400
     34 O31          2.1080    -5.2340    -0.8460 o          1 KDJ      -0.994500
     35 O41          0.6360    -3.9730    -2.5260 o          1 KDJ      -0.994500
     36 O21          3.0670    -3.2920    -2.2290 o          1 KDJ      -0.994500
     37 O16         -1.2450    -1.9910    -0.1710 os         1 KDJ      -0.567700
     38 PA6         -2.1920    -2.7090     1.0240 p5         1 KDJ       1.322400
     39 O36         -2.9210    -3.7870     0.2140 o          1 KDJ      -0.974500
     40 O46         -1.2210    -3.2730     2.0660 o          1 KDJ      -0.974500
     41 O26         -3.1060    -1.6310     1.5950 o          1 KDJ      -0.974500
     42 H1          -1.6430     1.4980     1.0220 hn         1 KDJ       0.384500
     43 H2           1.6820     0.7510    -1.6840 h1         1 KDJ      -0.026300
     44 H3           0.8700     1.1220     1.2040 h1         1 KDJ       0.055700
     45 H4          -0.5450     0.3120    -1.3680 h1         1 KDJ       0.017700
     46 H5           0.0040    -1.1650     1.2370 h1         1 KDJ       0.055700
     47 H6           0.9140    -1.4390    -1.6410 h1         1 KDJ      -0.026300
     48 H7           3.1520    -0.9850    -0.7470 h1         1 KDJ       0.067700
@<TRIPOS>BOND
     1     1     4 1   
     2     1    15 1   
     3     1    42 1   
     4     2     3 1   
     5     2     7 1   
     6     2    22 1   
     7     2    43 1   
     8     3     4 1   
     9     3    17 1   
    10     3    44 1   
    11     4     5 1   
    12     4    45 1   
    13     5     6 1   
    14     5    37 1   
    15     5    46 1   
    16     6     7 1   
    17     6    32 1   
    18     6    47 1   
    19     7    27 1   
    20     7    48 1   
    21     8     9 1   
    22     9    10 1   
    23     9    11 1   
    24     9    12 1   
    25    12    13 1   
    26    12    14 1   
    27    12    15 1   
    28    15    16 2   
    29    17    18 1   
    30    18    19 1   
    31    18    20 1   
    32    18    21 1   
    33    22    23 1   
    34    23    24 1   
    35    23    25 1   
    36    23    26 1   
    37    27    28 1   
    38    28    29 1   
    39    28    30 1   
    40    28    31 1   
    41    32    33 1   
    42    33    34 1   
    43    33    35 1   
    44    33    36 1   
    45    37    38 1   
    46    38    39 1   
    47    38    40 1   
    48    38    41 1   
@<TRIPOS>SUBSTRUCTURE
     1 KDJ         1 TEMP              0 ****  ****    0 ROOT
