@<TRIPOS>MOLECULE
KDJ
   48    48     1     0     0
SMALL
No Charge or Current Charge


@<TRIPOS>ATOM
      1 N15         -1.8350     0.9040     0.1850 ns         1 KDJ      -0.412900
      2 C3           1.9710     0.7610    -0.5940 c6         1 KDJ       0.231300
      3 C4           0.6730     1.2640     0.1410 c6         1 KDJ       0.222300
      4 C5          -0.5330     0.3400    -0.2510 c6         1 KDJ       0.055700
      5 C6          -0.2230    -1.1300     0.2220 c6         1 KDJ       0.222300
      6 C1           1.0890    -1.6200    -0.5140 c6         1 KDJ       0.231300
      7 C2           2.3070    -0.7020    -0.1200 c6         1 KDJ       0.200300
      8 O75         -5.8290     1.7590    -2.1460 o          1 KDJ      -0.977833
      9 PB5         -5.7970     1.3540    -0.7060 p5         1 KDJ       1.362500
     10 O85         -6.8510     2.1430     0.0060 o          1 KDJ      -0.977833
     11 O95         -6.1490    -0.0930    -0.5760 o          1 KDJ      -0.977833
     12 C45         -4.1390     1.7340     0.0740 c3         1 KDJ      -0.226000
     13 F55         -3.8560     3.0540    -0.1110 f          1 KDJ      -0.170500
     14 F65         -4.2290     1.5490     1.4210 f          1 KDJ      -0.170500
     15 C25         -3.0210     0.8620    -0.5250 c          1 KDJ       0.616100
     16 O35         -3.1060     0.2480    -1.5840 o          1 KDJ      -0.730100
     17 O14          0.3640     2.6590    -0.1230 os         1 KDJ      -0.590900
     18 PA4         -0.0420     3.5960     1.1260 p5         1 KDJ       1.322400
     19 O34          1.1240     3.7960     2.0280 o          1 KDJ      -0.974500
     20 O44         -0.4880     4.9210     0.6150 o          1 KDJ      -0.974500
     21 O24         -1.1530     2.9580     1.8830 o          1 KDJ      -0.974500
     22 O13          3.0920     1.6760    -0.4800 os         1 KDJ      -0.551900
     23 PA3          3.9490     2.0430    -1.7990 p5         1 KDJ       1.326400
     24 O33          4.5370     0.8200    -2.4100 o          1 KDJ      -0.994500
     25 O43          3.0950     2.7280    -2.8100 o          1 KDJ      -0.994500
     26 O23          5.0580     2.9680    -1.4280 o          1 KDJ      -0.994500
     27 O12          2.5510    -0.7460     1.3200 os         1 KDJ      -0.593400
     28 PA2          3.9620    -1.2180     1.9530 p5         1 KDJ       1.358900
     29 O32          5.0760    -0.3320     1.5220 o          1 KDJ      -0.996500
     30 O42          3.8580    -1.1400     3.4380 o          1 KDJ      -0.996500
     31 O22          4.2790    -2.6250     1.5860 o          1 KDJ      -0.996500
     32 O11          1.3690    -3.0360    -0.3570 os         1 KDJ      -0.551900
     33 PA1          1.8190    -3.9010    -1.6460 p5         1 KDJ       1.326400
     34 O31          2.1030    -5.3040    -1.2310 o          1 KDJ      -0.994500
     35 O41          0.7340    -3.9320    -2.6670 o          1 KDJ      -0.994500
     36 O21          3.0480    -3.3350    -2.2660 o          1 KDJ      -0.994500
     37 O16         -1.3560    -2.0170     0.0140 os         1 KDJ      -0.590900
     38 PA6         -2.0470    -2.7390     1.2850 p5         1 KDJ       1.322400
     39 O36         -3.1790    -3.5840     0.8080 o          1 KDJ      -0.974500
     40 O46         -1.0780    -3.6170     1.9960 o          1 KDJ      -0.974500
     41 O26         -2.5740    -1.7260     2.2400 o          1 KDJ      -0.974500
     42 H1          -1.8110     1.5950     0.9420 hn         1 KDJ       0.384500
     43 H2           1.7130     0.6900    -1.6610 h1         1 KDJ      -0.026300
     44 H3           0.8410     1.1490     1.2230 h1         1 KDJ       0.055700
     45 H4          -0.5630     0.3230    -1.3500 h1         1 KDJ       0.017700
     46 H5          -0.0110    -1.0930     1.3010 h1         1 KDJ       0.055700
     47 H6           0.9140    -1.4470    -1.5870 h1         1 KDJ      -0.026300
     48 H7           3.2030    -1.0480    -0.6540 h1         1 KDJ       0.067700
@<TRIPOS>BOND
     1     1     4 1   
     2     1    15 1   
     3     1    42 1   
     4     2     3 1   
     5     2     7 1   
     6     2    22 1   
     7     2    43 1   
     8     3     4 1   
     9     3    17 1   
    10     3    44 1   
    11     4     5 1   
    12     4    45 1   
    13     5     6 1   
    14     5    37 1   
    15     5    46 1   
    16     6     7 1   
    17     6    32 1   
    18     6    47 1   
    19     7    27 1   
    20     7    48 1   
    21     8     9 1   
    22     9    10 1   
    23     9    11 1   
    24     9    12 1   
    25    12    13 1   
    26    12    14 1   
    27    12    15 1   
    28    15    16 2   
    29    17    18 1   
    30    18    19 1   
    31    18    20 1   
    32    18    21 1   
    33    22    23 1   
    34    23    24 1   
    35    23    25 1   
    36    23    26 1   
    37    27    28 1   
    38    28    29 1   
    39    28    30 1   
    40    28    31 1   
    41    32    33 1   
    42    33    34 1   
    43    33    35 1   
    44    33    36 1   
    45    37    38 1   
    46    38    39 1   
    47    38    40 1   
    48    38    41 1   
@<TRIPOS>SUBSTRUCTURE
     1 KDJ         1 TEMP              0 ****  ****    0 ROOT
