@<TRIPOS>MOLECULE
KDK
   42    44     1     0     0
SMALL
abcg2


@<TRIPOS>ATOM
      1 C10         21.2090    21.6310     9.7500 ca         1 KDK      -0.099500
      2 C13         20.2950    23.9060     8.4590 ca         1 KDK      -0.111000
      3 C15         22.9730    21.3720     5.8720 c3         1 KDK      -0.004100
      4 C17         25.1980    20.6060     6.8490 c6         1 KDK      -0.112400
      5 C20         26.1820    23.3260     6.8070 c6         1 KDK       0.149800
      6 C21         24.9010    22.9600     6.0610 c6         1 KDK      -0.112400
      7 C02         22.1420    20.3000     6.5040 cc         1 KDK      -0.188300
      8 C03         21.3300    20.3750     7.6100 cd         1 KDK      -0.068000
      9 C04         20.7960    19.1080     7.9730 cd         1 KDK      -0.093000
     10 C05         21.1880    18.0940     7.1480 cc         1 KDK      -0.340900
     11 C06         20.8140    16.6720     7.2360 ce         1 KDK       0.685800
     12 C09         21.0380    21.6070     8.3660 ca         1 KDK      -0.017000
     13 C11         20.9290    22.7780    10.4800 ca         1 KDK      -0.111000
     14 C12         20.4750    23.9210     9.8360 ca         1 KDK      -0.107000
     15 C14         20.5700    22.7580     7.7300 ca         1 KDK      -0.099500
     16 C16         24.2070    21.7580     6.6990 c6         1 KDK      -0.057700
     17 C18         26.4710    21.0630     7.5620 c6         1 KDK       0.149800
     18 N07         20.8830    15.9860     6.0550 nv         1 KDK      -1.027200
     19 N08         20.4950    16.0800     8.3210 n2         1 KDK      -0.832100
     20 N19         27.1120    22.2180     6.9560 n7         1 KDK      -0.844400
     21 S01         22.2340    18.6900     5.9180 ss         1 KDK       0.251000
     22 H101        21.5750    20.7470    10.2590 ha         1 KDK       0.114500
     23 H131        19.9280    24.7880     7.9500 ha         1 KDK       0.113500
     24 H151        23.2940    21.0560     4.8760 hc         1 KDK       0.052200
     25 H152        22.3610    22.2630     5.7210 hc         1 KDK       0.052200
     26 H172        24.7480    19.7780     7.4040 hc         1 KDK       0.043700
     27 H171        25.4580    20.2180     5.8570 hc         1 KDK       0.043700
     28 H201        26.6920    24.1470     6.2970 h1         1 KDK       0.052450
     29 H202        25.9260    23.6920     7.8080 h1         1 KDK       0.052450
     30 H211        24.2240    23.8200     6.0400 hc         1 KDK       0.043700
     31 H212        25.1450    22.7260     5.0190 hc         1 KDK       0.043700
     32 H041        20.1090    18.9690     8.7980 ha         1 KDK       0.140000
     33 H111        21.0700    22.7780    11.5530 ha         1 KDK       0.113500
     34 H121        20.2560    24.8160    10.4030 ha         1 KDK       0.113000
     35 H141        20.3960    22.7520     6.6620 ha         1 KDK       0.114500
     36 H161        23.8650    22.0510     7.7000 hc         1 KDK       0.062700
     37 H181        27.1910    20.2440     7.6040 h1         1 KDK       0.052450
     38 H182        26.2300    21.3180     8.6000 h1         1 KDK       0.052450
     39 H1          20.5350    15.0410     6.0870 hn         1 KDK       0.466000
     40 H071        20.6300    16.4740     5.2110 hn         1 KDK       0.466000
     41 H082        20.6100    16.6980     9.1160 hn         1 KDK       0.391400
     42 H191        27.4600    21.9590     6.0390 hn         1 KDK       0.401000
@<TRIPOS>BOND
     1     1    12 ar  
     2     1    13 ar  
     3     1    22 1   
     4     2    14 ar  
     5     2    15 ar  
     6     2    23 1   
     7     3     7 1   
     8     3    16 1   
     9     3    24 1   
    10     3    25 1   
    11     4    16 1   
    12     4    17 1   
    13     4    26 1   
    14     4    27 1   
    15     5     6 1   
    16     5    20 1   
    17     5    28 1   
    18     5    29 1   
    19     6    16 1   
    20     6    30 1   
    21     6    31 1   
    22     7     8 2   
    23     7    21 1   
    24     8     9 1   
    25     8    12 1   
    26     9    10 2   
    27     9    32 1   
    28    10    11 1   
    29    10    21 1   
    30    11    18 1   
    31    11    19 2   
    32    12    15 ar  
    33    13    14 ar  
    34    13    33 1   
    35    14    34 1   
    36    15    35 1   
    37    16    36 1   
    38    17    20 1   
    39    17    37 1   
    40    17    38 1   
    41    18    39 1   
    42    18    40 1   
    43    19    41 1   
    44    20    42 1   
@<TRIPOS>SUBSTRUCTURE
     1 KDK         1 TEMP              0 ****  ****    0 ROOT
