@<TRIPOS>MOLECULE
KDK
   42    44     1     0     0
SMALL
No Charge or Current Charge


@<TRIPOS>ATOM
      1 C10         20.9970    21.3810     9.8600 ca         1 KDK      -0.099500
      2 C13         20.8700    23.9340     8.7150 ca         1 KDK      -0.111000
      3 C15         22.9590    21.2560     5.6990 c3         1 KDK      -0.004100
      4 C17         25.1510    20.7610     6.9750 c6         1 KDK      -0.112400
      5 C20         26.0800    23.5200     6.5450 c6         1 KDK       0.149800
      6 C21         24.8870    22.9600     5.7330 c6         1 KDK      -0.112400
      7 C02         22.1210    20.2280     6.4320 cc         1 KDK      -0.188300
      8 C03         21.4460    20.2980     7.6440 cd         1 KDK      -0.068000
      9 C04         20.8760    19.0340     7.9950 cd         1 KDK      -0.093000
     10 C05         21.1210    18.0030     7.1170 cc         1 KDK      -0.340900
     11 C06         20.6960    16.6180     7.1880 ce         1 KDK       0.685800
     12 C09         21.1950    21.5130     8.4650 ca         1 KDK      -0.017000
     13 C11         20.7560    22.5040    10.6700 ca         1 KDK      -0.111000
     14 C12         20.6960    23.7830    10.0980 ca         1 KDK      -0.107000
     15 C14         21.1130    22.8090     7.9070 ca         1 KDK      -0.099500
     16 C16         24.1400    21.8520     6.5240 c6         1 KDK      -0.057700
     17 C18         26.3380    21.3840     7.7500 c6         1 KDK       0.149800
     18 N07         20.9410    15.7750     6.1760 nv         1 KDK      -1.027200
     19 N08         20.0400    16.1780     8.1750 n2         1 KDK      -0.832100
     20 N19         27.0070    22.4340     6.9450 n7         1 KDK      -0.844400
     21 S01         22.1010    18.5870     5.7850 ss         1 KDK       0.251000
     22 H101        21.0610    20.4060    10.3350 ha         1 KDK       0.114500
     23 H131        20.8080    24.9220     8.2650 ha         1 KDK       0.113500
     24 H151        23.3760    20.7880     4.7980 hc         1 KDK       0.052200
     25 H152        22.3190    22.0520     5.3040 hc         1 KDK       0.052200
     26 H172        24.6510    20.0220     7.6150 hc         1 KDK       0.043700
     27 H171        25.5290    20.2130     6.1010 hc         1 KDK       0.043700
     28 H201        26.6200    24.2650     5.9410 h1         1 KDK       0.052450
     29 H202        25.7040    24.0340     7.4440 h1         1 KDK       0.052450
     30 H211        24.1960    23.7780     5.4890 hc         1 KDK       0.043700
     31 H212        25.2500    22.5610     4.7760 hc         1 KDK       0.043700
     32 H041        20.2680    18.9020     8.8840 ha         1 KDK       0.140000
     33 H111        20.6200    22.3810    11.7420 ha         1 KDK       0.113500
     34 H121        20.5070    24.6530    10.7240 ha         1 KDK       0.113000
     35 H141        21.1970    22.9610     6.8390 ha         1 KDK       0.114500
     36 H161        23.7100    22.3100     7.4230 hc         1 KDK       0.062700
     37 H181        27.0620    20.5970     8.0100 h1         1 KDK       0.052450
     38 H182        25.9720    21.8190     8.6930 h1         1 KDK       0.052450
     39 H1          20.3830    14.9310     6.2120 hn         1 KDK       0.466000
     40 H071        21.0490    16.1960     5.2640 hn         1 KDK       0.466000
     41 H082        19.9610    16.9460     8.8500 hn         1 KDK       0.391400
     42 H191        27.3710    21.9960     6.0900 hn         1 KDK       0.401000
@<TRIPOS>BOND
     1     1    12 ar  
     2     1    13 ar  
     3     1    22 1   
     4     2    14 ar  
     5     2    15 ar  
     6     2    23 1   
     7     3     7 1   
     8     3    16 1   
     9     3    24 1   
    10     3    25 1   
    11     4    16 1   
    12     4    17 1   
    13     4    26 1   
    14     4    27 1   
    15     5     6 1   
    16     5    20 1   
    17     5    28 1   
    18     5    29 1   
    19     6    16 1   
    20     6    30 1   
    21     6    31 1   
    22     7     8 2   
    23     7    21 1   
    24     8     9 1   
    25     8    12 1   
    26     9    10 2   
    27     9    32 1   
    28    10    11 1   
    29    10    21 1   
    30    11    18 1   
    31    11    19 2   
    32    12    15 ar  
    33    13    14 ar  
    34    13    33 1   
    35    14    34 1   
    36    15    35 1   
    37    16    36 1   
    38    17    20 1   
    39    17    37 1   
    40    17    38 1   
    41    18    39 1   
    42    18    40 1   
    43    19    41 1   
    44    20    42 1   
@<TRIPOS>SUBSTRUCTURE
     1 KDK         1 TEMP              0 ****  ****    0 ROOT
