@<TRIPOS>MOLECULE
KDN
   33    33     1     0     0
SMALL
abcg2


@<TRIPOS>ATOM
      1 C1          -1.6000     0.7780    -0.2000 c6         1 KDN       0.239000
      2 C10         -1.9350     2.1610     0.4380 c          1 KDN       0.717000
      3 C2          -2.5180    -0.3420     0.2690 c6         1 KDN      -0.111400
      4 C3          -2.0210    -1.6890    -0.2350 c6         1 KDN       0.129300
      5 C4          -0.5820    -1.9000     0.2080 c6         1 KDN       0.145300
      6 C5           0.2760    -0.7120    -0.2330 c6         1 KDN       0.151300
      7 C6           1.6930    -0.7750     0.3390 c3         1 KDN       0.153300
      8 C7           2.6090     0.3120    -0.2550 c3         1 KDN       0.136300
      9 C9           4.0110     0.2160     0.3300 c3         1 KDN       0.125600
     10 O4          -0.0180    -3.0590    -0.3610 oh         1 KDN      -0.736000
     11 O9          -2.1040     2.2110     1.6600 o          1 KDN      -0.695500
     12 O8          -1.9810     3.0990    -0.3890 o          1 KDN      -0.695500
     13 O3          -2.7780    -2.7680     0.2810 oh         1 KDN      -0.688000
     14 O5          -0.2760     0.5040     0.2260 os         1 KDN      -0.466000
     15 O6           1.6740    -0.7210     1.7480 oh         1 KDN      -0.736000
     16 O7           2.6310     0.2400    -1.6630 oh         1 KDN      -0.631000
     17 O10          4.7960     1.2620    -0.1960 oh         1 KDN      -0.708000
     18 O1          -1.6610     0.9060    -1.5790 oh         1 KDN      -0.715000
     19 H21C        -2.5450    -0.3480     1.3610 hc         1 KDN       0.061200
     20 H22C        -3.5370    -0.1540    -0.0800 hc         1 KDN       0.061200
     21 H1          -1.7000     1.8770    -1.7000 ho         1 KDN       0.492000
     22 H3          -2.0470    -1.7020    -1.3350 h1         1 KDN       0.047700
     23 H4          -0.5730    -1.9580     1.3080 h1         1 KDN       0.055700
     24 HA          -3.6280    -2.7850    -0.1690 ho         1 KDN       0.437000
     25 H5           0.3380    -0.7260    -1.3280 h1         1 KDN       0.067700
     26 HB          -0.5840    -3.8040    -0.1360 ho         1 KDN       0.506000
     27 H6           2.1180    -1.7510     0.0770 h1         1 KDN       0.062700
     28 H7           2.1990     1.2980    -0.0150 h1         1 KDN       0.111700
     29 HC           1.1630     0.0560     2.0050 ho         1 KDN       0.532000
     30 HD           3.0260    -0.6000    -1.9220 ho         1 KDN       0.423000
     31 H91C         3.9500     0.2700     1.4210 h1         1 KDN       0.021200
     32 H92C         4.4340    -0.7700     0.0820 h1         1 KDN       0.021200
     33 H10          5.6480     1.2440     0.2500 ho         1 KDN       0.486000
@<TRIPOS>BOND
     1     1     2 1   
     2     1     3 1   
     3     1    14 1   
     4     1    18 1   
     5     2    11 1   
     6     2    12 1   
     7     3     4 1   
     8     3    19 1   
     9     3    20 1   
    10     4     5 1   
    11     4    13 1   
    12     4    22 1   
    13     5     6 1   
    14     5    10 1   
    15     5    23 1   
    16     6     7 1   
    17     6    14 1   
    18     6    25 1   
    19     7     8 1   
    20     7    15 1   
    21     7    27 1   
    22     8     9 1   
    23     8    16 1   
    24     8    28 1   
    25     9    17 1   
    26     9    31 1   
    27     9    32 1   
    28    10    26 1   
    29    13    24 1   
    30    15    29 1   
    31    16    30 1   
    32    17    33 1   
    33    18    21 1   
@<TRIPOS>SUBSTRUCTURE
     1 KDN         1 TEMP              0 ****  ****    0 ROOT
