@<TRIPOS>MOLECULE
KDN
   33    33     1     0     0
SMALL
No Charge or Current Charge


@<TRIPOS>ATOM
      1 C1          -1.6780     0.8140    -0.0830 c6         1 KDN       0.239000
      2 C10         -2.2800     2.1450     0.6010 c          1 KDN       0.717000
      3 C2          -2.6130    -0.3920     0.2300 c6         1 KDN      -0.111400
      4 C3          -2.0330    -1.7260    -0.3020 c6         1 KDN       0.129300
      5 C4          -0.5860    -1.9370     0.2280 c6         1 KDN       0.145300
      6 C5           0.2840    -0.7000    -0.1560 c6         1 KDN       0.151300
      7 C6           1.7280    -0.7600     0.4480 c3         1 KDN       0.153300
      8 C7           2.7450     0.1690    -0.2900 c3         1 KDN       0.136300
      9 C9           4.1680     0.1370     0.3320 c3         1 KDN       0.125600
     10 O4          -0.0640    -3.1710    -0.3020 oh         1 KDN      -0.736000
     11 O9          -1.7530     2.5390     1.6370 o          1 KDN      -0.695500
     12 O8          -2.7340     2.9660    -0.1950 o          1 KDN      -0.695500
     13 O3          -2.8710    -2.8290     0.0860 oh         1 KDN      -0.688000
     14 O5          -0.3310     0.5100     0.3820 os         1 KDN      -0.466000
     15 O6           1.6670    -0.3950     1.8430 oh         1 KDN      -0.736000
     16 O7           2.8720    -0.2130    -1.6720 oh         1 KDN      -0.631000
     17 O10          5.0820     0.8950    -0.4840 oh         1 KDN      -0.708000
     18 O1          -1.5940     1.0090    -1.5090 oh         1 KDN      -0.715000
     19 H21C        -2.7590    -0.4590     1.3170 hc         1 KDN       0.061200
     20 H22C        -3.6050    -0.2120    -0.2050 hc         1 KDN       0.061200
     21 H1          -2.0030     1.9020    -1.6230 ho         1 KDN       0.492000
     22 H3          -1.9900    -1.6650    -1.4000 h1         1 KDN       0.047700
     23 H4          -0.6310    -1.9970     1.3270 h1         1 KDN       0.055700
     24 HA          -3.7640    -2.6540    -0.2870 ho         1 KDN       0.437000
     25 H5           0.3500    -0.6320    -1.2510 h1         1 KDN       0.067700
     26 HB          -0.8410    -3.7800    -0.2970 ho         1 KDN       0.506000
     27 H6           2.0990    -1.7890     0.3470 h1         1 KDN       0.062700
     28 H7           2.3730     1.2020    -0.2190 h1         1 KDN       0.111700
     29 HC           0.8880     0.2150     1.8860 ho         1 KDN       0.532000
     30 HD           3.7610     0.1230    -1.9290 ho         1 KDN       0.423000
     31 H91C         4.1320     0.5560     1.3460 h1         1 KDN       0.021200
     32 H92C         4.5060    -0.9060     0.4140 h1         1 KDN       0.021200
     33 H10          5.9500     0.9040    -0.0150 ho         1 KDN       0.486000
@<TRIPOS>BOND
     1     1     2 1   
     2     1     3 1   
     3     1    14 1   
     4     1    18 1   
     5     2    11 1   
     6     2    12 1   
     7     3     4 1   
     8     3    19 1   
     9     3    20 1   
    10     4     5 1   
    11     4    13 1   
    12     4    22 1   
    13     5     6 1   
    14     5    10 1   
    15     5    23 1   
    16     6     7 1   
    17     6    14 1   
    18     6    25 1   
    19     7     8 1   
    20     7    15 1   
    21     7    27 1   
    22     8     9 1   
    23     8    16 1   
    24     8    28 1   
    25     9    17 1   
    26     9    31 1   
    27     9    32 1   
    28    10    26 1   
    29    13    24 1   
    30    15    29 1   
    31    16    30 1   
    32    17    33 1   
    33    18    21 1   
@<TRIPOS>SUBSTRUCTURE
     1 KDN         1 TEMP              0 ****  ****    0 ROOT
