@<TRIPOS>MOLECULE
KDO
   29    29     1     0     0
SMALL
No Charge or Current Charge


@<TRIPOS>ATOM
      1 C1           1.6050    -0.4680    -2.3380 c          1 KDO       0.717000
      2 O1A          2.1690    -1.4700    -1.9090 o          1 KDO      -0.694500
      3 O1B          2.2240     0.3010    -3.0720 o          1 KDO      -0.694500
      4 C2           0.5070     0.2380    -1.3890 c6         1 KDO       0.242000
      5 O2           0.6820     1.6700    -1.4360 oh         1 KDO      -0.696000
      6 C3          -0.9170    -0.1290    -1.9020 c6         1 KDO      -0.110400
      7 C4          -2.0440     0.3830    -0.9620 c6         1 KDO       0.123300
      8 O4          -3.3120    -0.1370    -1.4030 oh         1 KDO      -0.691000
      9 C5          -1.7860    -0.0440     0.5140 c6         1 KDO       0.163300
     10 O5          -1.9900    -1.4670     0.6070 oh         1 KDO      -0.701000
     11 C6          -0.3430     0.3980     0.9230 c6         1 KDO       0.145300
     12 O6           0.6370    -0.1650     0.0060 os         1 KDO      -0.436000
     13 C7           0.0410    -0.0330     2.3780 c3         1 KDO       0.174300
     14 O7          -0.8330     0.5500     3.3680 oh         1 KDO      -0.710000
     15 C8           1.4950     0.3440     2.7730 c3         1 KDO       0.124600
     16 O8           1.7210     0.0450     4.1650 oh         1 KDO      -0.659000
     17 HO2          1.3910     1.7800    -2.1150 ho         1 KDO       0.445000
     18 H31         -1.0610     0.2780    -2.9120 hc         1 KDO       0.065700
     19 H32         -0.9850    -1.2210    -2.0040 hc         1 KDO       0.065700
     20 H4          -2.0580     1.4830    -0.9980 h1         1 KDO       0.040700
     21 HO4         -3.5320     0.3210    -2.2450 ho         1 KDO       0.444000
     22 H5          -2.5100     0.4780     1.1560 h1         1 KDO       0.027700
     23 HO5         -2.6720    -1.6290    -0.0900 ho         1 KDO       0.504000
     24 H6          -0.2810     1.4950     0.8820 h1         1 KDO       0.020700
     25 H7          -0.0290    -1.1300     2.4150 h1         1 KDO       0.114700
     26 HO7         -0.2840     0.5400     4.1900 ho         1 KDO       0.481000
     27 H81          1.6580     1.4130     2.5800 h1         1 KDO       0.033200
     28 H82          2.1980    -0.2190     2.1450 h1         1 KDO       0.033200
     29 HO8          2.6710     0.2270     4.3490 ho         1 KDO       0.429000
@<TRIPOS>BOND
     1     1     2 1   
     2     1     3 1   
     3     1     4 1   
     4     4     5 1   
     5     4     6 1   
     6     4    12 1   
     7     5    17 1   
     8     6     7 1   
     9     6    18 1   
    10     6    19 1   
    11     7     8 1   
    12     7     9 1   
    13     7    20 1   
    14     8    21 1   
    15     9    10 1   
    16     9    11 1   
    17     9    22 1   
    18    10    23 1   
    19    11    12 1   
    20    11    13 1   
    21    11    24 1   
    22    13    14 1   
    23    13    15 1   
    24    13    25 1   
    25    14    26 1   
    26    15    16 1   
    27    15    27 1   
    28    15    28 1   
    29    16    29 1   
@<TRIPOS>SUBSTRUCTURE
     1 KDO         1 TEMP              0 ****  ****    0 ROOT
