@<TRIPOS>MOLECULE
KDO
   29    29     1     0     0
SMALL
bcc


@<TRIPOS>ATOM
      1 C1           1.5790    -0.4630    -2.1860 c          1 KDO       0.927600
      2 O1A          2.1150    -1.4670    -1.6920 o          1 KDO      -0.799800
      3 O1B          1.7620     0.0210    -3.3170 o          1 KDO      -0.799800
      4 C2           0.5120     0.2830    -1.3310 c6         1 KDO       0.195600
      5 O2           0.6620     1.6750    -1.4200 oh         1 KDO      -0.633800
      6 C3          -0.8860    -0.0460    -1.8530 c6         1 KDO      -0.110400
      7 C4          -1.9650     0.4790    -0.9140 c6         1 KDO       0.100100
      8 O4          -3.2580     0.0510    -1.2940 oh         1 KDO      -0.628800
      9 C5          -1.7220    -0.0260     0.5050 c6         1 KDO       0.140100
     10 O5          -1.8660    -1.4230     0.5890 oh         1 KDO      -0.578800
     11 C6          -0.3040     0.3530     0.9120 c6         1 KDO       0.122100
     12 O6           0.6460    -0.1510    -0.0020 os         1 KDO      -0.389600
     13 C7           0.0880    -0.1710     2.2990 c3         1 KDO       0.151100
     14 O7          -0.8710     0.2040     3.2620 oh         1 KDO      -0.587800
     15 C8           1.4840     0.2960     2.6830 c3         1 KDO       0.101400
     16 O8           1.8140    -0.2520     3.9390 oh         1 KDO      -0.596800
     17 HO2          1.5840     1.9060    -1.2600 ho         1 KDO       0.406000
     18 H31         -1.0110     0.3710    -2.8550 hc         1 KDO       0.065700
     19 H32         -0.9830    -1.1310    -1.9400 hc         1 KDO       0.065700
     20 H4          -1.9200     1.5760    -0.8870 h1         1 KDO       0.040700
     21 HO4         -3.3740     0.2160    -2.2350 ho         1 KDO       0.405000
     22 H5          -2.4220     0.4860     1.1810 h1         1 KDO       0.027700
     23 HO5         -2.6940    -1.6610     0.1590 ho         1 KDO       0.405000
     24 H6          -0.2670     1.4540     0.9450 h1         1 KDO       0.020700
     25 H7           0.0800    -1.2650     2.2800 h1         1 KDO       0.114700
     26 HO7         -0.8430     1.1610     3.3690 ho         1 KDO       0.382000
     27 H81          1.4990     1.3970     2.7070 h1         1 KDO       0.033200
     28 H82          2.1910    -0.0140     1.9080 h1         1 KDO       0.033200
     29 HO8          2.7310    -0.0300     4.1250 ho         1 KDO       0.390000
@<TRIPOS>BOND
     1     1     2 1   
     2     1     3 1   
     3     1     4 1   
     4     4     5 1   
     5     4     6 1   
     6     4    12 1   
     7     5    17 1   
     8     6     7 1   
     9     6    18 1   
    10     6    19 1   
    11     7     8 1   
    12     7     9 1   
    13     7    20 1   
    14     8    21 1   
    15     9    10 1   
    16     9    11 1   
    17     9    22 1   
    18    10    23 1   
    19    11    12 1   
    20    11    13 1   
    21    11    24 1   
    22    13    14 1   
    23    13    15 1   
    24    13    25 1   
    25    14    26 1   
    26    15    16 1   
    27    15    27 1   
    28    15    28 1   
    29    16    29 1   
@<TRIPOS>SUBSTRUCTURE
     1 KDO         1 TEMP              0 ****  ****    0 ROOT
