@<TRIPOS>MOLECULE
KDQ
   58    60     1     0     0
SMALL
No Charge or Current Charge


@<TRIPOS>ATOM
      1 C3          -5.8610     1.6360    -0.3150 ca         1 KDQ      -0.097000
      2 C5          -7.9690     0.7110    -1.0930 ca         1 KDQ      -0.100000
      3 C6          -7.6520    -0.5150    -0.4850 ca         1 KDQ      -0.082000
      4 C21          7.8830    -0.7310    -0.6080 ca         1 KDQ      -0.086000
      5 C9          -1.1540    -1.3540    -0.5440 c5         1 KDQ       0.028700
      6 C10         -1.5790    -2.8420    -0.7390 c5         1 KDQ      -0.086400
      7 C11         -0.3490    -3.4360    -1.4650 c5         1 KDQ      -0.092400
      8 C2          -5.5330     0.4110     0.3030 ca         1 KDQ      -0.102300
      9 C7          -6.4370    -0.6800     0.2130 ca         1 KDQ      -0.066300
     10 C16          7.1840     0.4780    -0.4310 ca         1 KDQ      -0.079300
     11 C15          5.6620     0.4810    -0.3510 c3         1 KDQ      -0.282100
     12 C12          0.8220    -2.8530    -0.6360 c5         1 KDQ       0.104000
     13 N1           0.3130    -1.5010    -0.3160 n          1 KDQ      -0.397800
     14 C20          9.2870    -0.7340    -0.6840 ca         1 KDQ      -0.108500
     15 C19          9.9990     0.4740    -0.5850 ca         1 KDQ      -0.099000
     16 C18          9.3060     1.6840    -0.4100 ca         1 KDQ      -0.108500
     17 C17          7.9020     1.6860    -0.3350 ca         1 KDQ      -0.086000
     18 O4           5.2830    -1.0850     1.7970 o          1 KDQ      -0.521000
     19 S            5.0150     0.2750     1.3220 s6         1 KDQ       1.187100
     20 O3           5.3750     1.4280     2.1490 o          1 KDQ      -0.521000
     21 N2           3.3640     0.3750     1.1060 n7         1 KDQ      -0.873300
     22 C14          2.6490    -0.7140     0.3600 c3         1 KDQ       0.131800
     23 O2           0.6920     0.7240     0.0950 o          1 KDQ      -0.601100
     24 C           -1.9680    -0.7640     0.6540 c          1 KDQ       0.601100
     25 O           -1.6330    -0.7040     1.8310 o          1 KDQ      -0.588100
     26 N           -3.1800    -0.2990     0.1940 ns         1 KDQ      -0.500900
     27 C1          -4.2060     0.2970     1.0450 c3         1 KDQ       0.141300
     28 O1          -6.5090    -2.0340     2.2340 oh         1 KDQ      -0.659000
     29 C4          -7.0720     1.7840    -1.0080 ca         1 KDQ       0.119000
     30 Cl          -7.4650     3.3190    -1.7720 cl         1 KDQ      -0.200000
     31 H1          -5.1750     2.4780    -0.2590 ha         1 KDQ       0.130000
     32 H2          -8.9070     0.8280    -1.6300 ha         1 KDQ       0.131000
     33 H3          -8.3550    -1.3430    -0.5560 ha         1 KDQ       0.135000
     34 H5          -1.3410    -0.7560    -1.4460 h1         1 KDQ       0.068700
     35 H6          -1.7420    -3.3450     0.2230 hc         1 KDQ       0.062700
     36 H7          -2.5040    -2.9420    -1.3190 hc         1 KDQ       0.062700
     37 H8          -0.3490    -4.5320    -1.4770 hc         1 KDQ       0.059700
     38 H9          -0.3030    -3.0970    -2.5070 hc         1 KDQ       0.059700
     39 H12          5.2640     1.4290    -0.7270 h1         1 KDQ       0.091200
     40 H13          5.2540    -0.3400    -0.9490 h1         1 KDQ       0.091200
     41 H14          0.9920    -3.4310     0.2830 h1         1 KDQ       0.056700
     42 H15          1.7540    -2.8330    -1.2170 h1         1 KDQ       0.056700
     43 H16          9.8220    -1.6710    -0.8190 ha         1 KDQ       0.116500
     44 H17         11.0860     0.4720    -0.6430 ha         1 KDQ       0.114000
     45 H18          9.8560     2.6190    -0.3340 ha         1 KDQ       0.116500
     46 H19          7.3730     2.6270    -0.1990 ha         1 KDQ       0.118500
     47 H20          3.2800     1.2480     0.5830 hn         1 KDQ       0.511000
     48 H21          2.6800    -1.6450     0.9420 h1         1 KDQ       0.068200
     49 H22          3.1280    -0.9200    -0.6060 h1         1 KDQ       0.068200
     50 H23         -3.3690    -0.3880    -0.7970 hn         1 KDQ       0.316500
     51 H24         -3.8670     1.2930     1.3610 h1         1 KDQ       0.070200
     52 H25         -4.3290    -0.3100     1.9520 h1         1 KDQ       0.070200
     53 H26         -6.3270    -2.9360     2.5790 ho         1 KDQ       0.448000
     54 C8          -6.1360    -2.0370     0.8510 c3         1 KDQ       0.205900
     55 C13          1.1460    -0.4170     0.0430 c          1 KDQ       0.608100
     56 H4           7.3390    -1.6700    -0.6850 ha         1 KDQ       0.118500
     57 H10         -6.6900    -2.8180     0.3130 h1         1 KDQ       0.033700
     58 H11         -5.0690    -2.2730     0.7400 h1         1 KDQ       0.033700
@<TRIPOS>BOND
     1     1     8 ar  
     2     1    29 ar  
     3     1    31 1   
     4     2     3 ar  
     5     2    29 ar  
     6     2    32 1   
     7     3     9 ar  
     8     3    33 1   
     9     4    10 ar  
    10     4    14 ar  
    11     4    56 1   
    12     5     6 1   
    13     5    13 1   
    14     5    24 1   
    15     5    34 1   
    16     6     7 1   
    17     6    35 1   
    18     6    36 1   
    19     7    12 1   
    20     7    37 1   
    21     7    38 1   
    22     8     9 ar  
    23     8    27 1   
    24     9    54 1   
    25    10    11 1   
    26    10    17 ar  
    27    11    19 1   
    28    11    39 1   
    29    11    40 1   
    30    12    13 1   
    31    12    41 1   
    32    12    42 1   
    33    13    55 1   
    34    14    15 ar  
    35    14    43 1   
    36    15    16 ar  
    37    15    44 1   
    38    16    17 ar  
    39    16    45 1   
    40    17    46 1   
    41    18    19 2   
    42    19    20 2   
    43    19    21 1   
    44    21    22 1   
    45    21    47 1   
    46    22    48 1   
    47    22    49 1   
    48    22    55 1   
    49    23    55 2   
    50    24    25 2   
    51    24    26 1   
    52    26    27 1   
    53    26    50 1   
    54    27    51 1   
    55    27    52 1   
    56    28    53 1   
    57    28    54 1   
    58    29    30 1   
    59    54    57 1   
    60    54    58 1   
@<TRIPOS>SUBSTRUCTURE
     1 KDQ         1 TEMP              0 ****  ****    0 ROOT
