@<TRIPOS>MOLECULE
KDQ
   58    60     1     0     0
SMALL
bcc


@<TRIPOS>ATOM
      1 C3          -5.8780     1.8270    -0.1400 ca         1 KDQ      -0.115000
      2 C5          -7.8720     0.5480    -0.5540 ca         1 KDQ      -0.118000
      3 C6          -7.2180    -0.5860    -0.0930 ca         1 KDQ      -0.100000
      4 C21          7.6250    -0.7520    -0.4980 ca         1 KDQ      -0.104000
      5 C9          -1.1510    -1.4310    -0.7430 c5         1 KDQ       0.028700
      6 C10         -1.6900    -2.8600    -0.9120 c5         1 KDQ      -0.086400
      7 C11         -0.4500    -3.6770    -1.2560 c5         1 KDQ      -0.092400
      8 C2          -5.2260     0.6900     0.3230 ca         1 KDQ      -0.102300
      9 C7          -5.9010    -0.5380     0.3500 ca         1 KDQ      -0.066300
     10 C16          6.9130     0.4450    -0.4880 ca         1 KDQ      -0.079300
     11 C15          5.4210     0.4390    -0.5940 c3         1 KDQ      -0.171300
     12 C12          0.6320    -3.0390    -0.3970 c5         1 KDQ       0.104000
     13 N1           0.2400    -1.6340    -0.3860 n          1 KDQ      -0.464800
     14 C20          9.0080    -0.7440    -0.3830 ca         1 KDQ      -0.126500
     15 C19          9.6890     0.4590    -0.2490 ca         1 KDQ      -0.117000
     16 C18          8.9830     1.6550    -0.2340 ca         1 KDQ      -0.126500
     17 C17          7.6000     1.6470    -0.3490 ca         1 KDQ      -0.104000
     18 O4           5.0910    -0.9590     1.6230 o          1 KDQ      -0.591800
     19 S            4.6940     0.3190     1.0510 s6         1 KDQ       1.217900
     20 O3           4.9900     1.5490     1.7660 o          1 KDQ      -0.591800
     21 N2           3.0680     0.2680     0.8470 n7         1 KDQ      -0.818100
     22 C14          2.4540    -0.9220     0.2890 c3         1 KDQ       0.131800
     23 O2           0.6190     0.5640    -0.1270 o          1 KDQ      -0.601100
     24 C           -1.9040    -0.7000     0.3610 c          1 KDQ       0.668100
     25 O           -1.6640    -0.9050     1.5400 o          1 KDQ      -0.588100
     26 N           -2.8920     0.0940    -0.0810 ns         1 KDQ      -0.567900
     27 C1          -3.7960     0.8230     0.7810 c3         1 KDQ       0.141300
     28 O1          -6.1690    -2.7330     1.2380 oh         1 KDQ      -0.596800
     29 C4          -7.1910     1.7510    -0.5720 ca         1 KDQ       0.027400
     30 CL          -7.9840     3.1820    -1.1460 cl         1 KDQ      -0.108400
     31 H1          -5.3530     2.7740    -0.1560 ha         1 KDQ       0.148000
     32 H2          -8.8970     0.4850    -0.8940 ha         1 KDQ       0.149000
     33 H3          -7.7600    -1.5210    -0.0820 ha         1 KDQ       0.153000
     34 H5          -1.2190    -0.8780    -1.6850 h1         1 KDQ       0.068700
     35 H6          -2.1180    -3.2170     0.0280 hc         1 KDQ       0.062700
     36 H7          -2.4670    -2.9080    -1.6730 hc         1 KDQ       0.062700
     37 H8          -0.5720    -4.7380    -1.0430 hc         1 KDQ       0.059700
     38 H9          -0.2010    -3.5700    -2.3130 hc         1 KDQ       0.059700
     39 H12          5.0320     1.3570    -1.0370 h1         1 KDQ       0.091200
     40 H13          5.0510    -0.4110    -1.1700 h1         1 KDQ       0.091200
     41 H14          0.6310    -3.4490     0.6170 h1         1 KDQ       0.056700
     42 H15          1.6280    -3.1730    -0.8190 h1         1 KDQ       0.056700
     43 H16          9.5540    -1.6780    -0.3980 ha         1 KDQ       0.134500
     44 H17         10.7670     0.4640    -0.1630 ha         1 KDQ       0.132000
     45 H18          9.5100     2.5950    -0.1320 ha         1 KDQ       0.134500
     46 H19          7.0530     2.5820    -0.3440 ha         1 KDQ       0.136500
     47 H20          2.6680     1.1390     0.5110 hn         1 KDQ       0.455800
     48 H21          2.4770    -1.7300     1.0200 h1         1 KDQ       0.068200
     49 H22          2.9610    -1.2860    -0.6140 h1         1 KDQ       0.068200
     50 H23         -2.9670     0.2620    -1.0720 hn         1 KDQ       0.316500
     51 H24         -3.5200     1.8800     0.8040 h1         1 KDQ       0.070200
     52 H25         -3.6760     0.4460     1.7970 h1         1 KDQ       0.070200
     53 H26         -5.7270    -3.5810     1.3390 ho         1 KDQ       0.409000
     54 C8          -5.2130    -1.7930     0.8180 c3         1 KDQ       0.182700
     55 C13          1.0190    -0.5920    -0.0860 c          1 KDQ       0.675100
     56 H4           7.0970    -1.6910    -0.6110 ha         1 KDQ       0.136500
     57 H10         -4.6090    -2.1870    -0.0110 h1         1 KDQ       0.033700
     58 H11         -4.5110    -1.5550     1.6270 h1         1 KDQ       0.033700
@<TRIPOS>BOND
     1     1     8 ar  
     2     1    29 ar  
     3     1    31 1   
     4     2     3 ar  
     5     2    29 ar  
     6     2    32 1   
     7     3     9 ar  
     8     3    33 1   
     9     4    10 ar  
    10     4    14 ar  
    11     4    56 1   
    12     5     6 1   
    13     5    13 1   
    14     5    24 1   
    15     5    34 1   
    16     6     7 1   
    17     6    35 1   
    18     6    36 1   
    19     7    12 1   
    20     7    37 1   
    21     7    38 1   
    22     8     9 ar  
    23     8    27 1   
    24     9    54 1   
    25    10    11 1   
    26    10    17 ar  
    27    11    19 1   
    28    11    39 1   
    29    11    40 1   
    30    12    13 1   
    31    12    41 1   
    32    12    42 1   
    33    13    55 1   
    34    14    15 ar  
    35    14    43 1   
    36    15    16 ar  
    37    15    44 1   
    38    16    17 ar  
    39    16    45 1   
    40    17    46 1   
    41    18    19 2   
    42    19    20 2   
    43    19    21 1   
    44    21    22 1   
    45    21    47 1   
    46    22    48 1   
    47    22    49 1   
    48    22    55 1   
    49    23    55 2   
    50    24    25 2   
    51    24    26 1   
    52    26    27 1   
    53    26    50 1   
    54    27    51 1   
    55    27    52 1   
    56    28    53 1   
    57    28    54 1   
    58    29    30 1   
    59    54    57 1   
    60    54    58 1   
@<TRIPOS>SUBSTRUCTURE
     1 KDQ         1 TEMP              0 ****  ****    0 ROOT
