@<TRIPOS>MOLECULE
KDR
   36    36     1     0     0
SMALL
bcc


@<TRIPOS>ATOM
      1 C11          3.3880     2.7510    -2.0310 c2         1 KDR      -0.204000
      2 C10          3.2240     1.9050    -1.0230 c2         1 KDR      -0.174200
      3 C9           1.8940     1.5460    -0.4500 c3         1 KDR       0.178600
      4 O2           1.7200     0.1370    -0.5850 os         1 KDR      -0.420600
      5 C2           1.0970    -0.5330     0.4550 c6         1 KDR       0.241600
      6 C1           1.9340    -0.5250     1.7350 c          1 KDR       0.564900
      7 O1A          3.1110    -0.2900     1.7490 o          1 KDR      -0.487100
      8 C3           0.9300    -1.9930     0.0250 c6         1 KDR      -0.125400
      9 O6          -0.1260     0.0330     0.8240 os         1 KDR      -0.423600
     10 C6          -1.1610    -0.0320    -0.1470 c6         1 KDR       0.123100
     11 C7          -2.3710     0.7000     0.4480 c3         1 KDR       0.154100
     12 O7          -3.4910     0.5580    -0.3920 oh         1 KDR      -0.566800
     13 C8          -2.0420     2.1620     0.7130 c3         1 KDR       0.106400
     14 O8          -3.1670     2.7770     1.2940 oh         1 KDR      -0.582800
     15 C5          -1.4520    -1.4750    -0.5360 c6         1 KDR       0.138100
     16 O5          -1.9640    -2.1510     0.5840 oh         1 KDR      -0.583800
     17 C4          -0.1570    -2.1090    -1.0380 c6         1 KDR       0.109100
     18 O4          -0.4440    -3.4520    -1.3510 oh         1 KDR      -0.603800
     19 H11          4.3720     3.0020    -2.4060 ha         1 KDR       0.112500
     20 H11A         2.5450     3.2240    -2.5210 ha         1 KDR       0.112500
     21 H10          4.0850     1.4410    -0.5520 ha         1 KDR       0.139000
     22 H9           1.8450     1.8630     0.5960 h1         1 KDR       0.038700
     23 H9A          1.0930     2.0720    -0.9810 h1         1 KDR       0.038700
     24 H1           1.3790    -0.8060     2.6460 h4         1 KDR       0.015200
     25 H3           1.8850    -2.3740    -0.3450 hc         1 KDR       0.073200
     26 H3A          0.6490    -2.5950     0.8940 hc         1 KDR       0.073200
     27 H6          -0.8560     0.4960    -1.0640 h1         1 KDR       0.041700
     28 H7          -2.6410     0.2220     1.3940 h1         1 KDR       0.115700
     29 HO7         -3.3330     1.0520    -1.2050 ho         1 KDR       0.394000
     30 H8          -1.1670     2.2220     1.3680 h1         1 KDR       0.023200
     31 H8A         -1.7640     2.6420    -0.2390 h1         1 KDR       0.023200
     32 HO8         -2.9240     3.6770     1.5280 ho         1 KDR       0.403000
     33 H5          -2.1730    -1.4660    -1.3650 h1         1 KDR       0.059700
     34 HO5         -2.0370    -3.0850     0.3630 ho         1 KDR       0.422000
     35 H4           0.1570    -1.5580    -1.9350 h1         1 KDR       0.054700
     36 HO4          0.3690    -3.8920    -1.6170 ho         1 KDR       0.416000
@<TRIPOS>BOND
     1     1     2 2   
     2     1    19 1   
     3     1    20 1   
     4     2     3 1   
     5     2    21 1   
     6     3     4 1   
     7     3    22 1   
     8     3    23 1   
     9     4     5 1   
    10     5     6 1   
    11     5     8 1   
    12     5     9 1   
    13     6     7 2   
    14     6    24 1   
    15     8    17 1   
    16     8    25 1   
    17     8    26 1   
    18     9    10 1   
    19    10    11 1   
    20    10    15 1   
    21    10    27 1   
    22    11    12 1   
    23    11    13 1   
    24    11    28 1   
    25    12    29 1   
    26    13    14 1   
    27    13    30 1   
    28    13    31 1   
    29    14    32 1   
    30    15    16 1   
    31    15    17 1   
    32    15    33 1   
    33    16    34 1   
    34    17    18 1   
    35    17    35 1   
    36    18    36 1   
@<TRIPOS>SUBSTRUCTURE
     1 KDR         1 TEMP              0 ****  ****    0 ROOT
