@<TRIPOS>MOLECULE
KDR
   36    36     1     0     0
SMALL
No Charge or Current Charge


@<TRIPOS>ATOM
      1 C11          1.9470     2.5410    -2.2270 c2         1 KDR      -0.304000
      2 C10          2.7270     1.9270    -1.3200 c2         1 KDR      -0.224200
      3 C9           2.2640     1.3800     0.0110 c3         1 KDR       0.201800
      4 O2           1.9720    -0.0160    -0.1920 os         1 KDR      -0.467000
      5 C2           1.1860    -0.7300     0.8080 c6         1 KDR       0.288000
      6 C1           1.8770    -0.8000     2.2280 c          1 KDR       0.564900
      7 O1A          2.7540    -0.0400     2.6380 o          1 KDR      -0.487100
      8 C3           0.9030    -2.1790     0.3090 c6         1 KDR      -0.125400
      9 O6          -0.0930    -0.0480     0.9440 os         1 KDR      -0.470000
     10 C6          -0.8940     0.0390    -0.2680 c6         1 KDR       0.146300
     11 C7          -2.1330     0.9450     0.0260 c3         1 KDR       0.177300
     12 O7          -2.9450     1.1490    -1.1490 oh         1 KDR      -0.689000
     13 C8          -1.7570     2.3480     0.5720 c3         1 KDR       0.129600
     14 O8          -2.9370     3.1650     0.6830 oh         1 KDR      -0.645000
     15 C5          -1.2810    -1.3880    -0.7680 c6         1 KDR       0.161300
     16 O5          -2.1210    -2.1010     0.1630 oh         1 KDR      -0.706000
     17 C4           0.0260    -2.2070    -0.9720 c6         1 KDR       0.132300
     18 O4          -0.3050    -3.5690    -1.2980 oh         1 KDR      -0.666000
     19 H11          2.3510     2.9100    -3.1710 ha         1 KDR       0.162500
     20 H11A         0.8800     2.6930    -2.0580 ha         1 KDR       0.162500
     21 H10          3.7920     1.7810    -1.5090 ha         1 KDR       0.189000
     22 H9           3.0570     1.5210     0.7550 h1         1 KDR       0.038700
     23 H9A          1.3760     1.9330     0.3460 h1         1 KDR       0.038700
     24 H1           1.5020    -1.6150     2.8860 h4         1 KDR       0.015200
     25 H3           1.8570    -2.6890     0.1160 hc         1 KDR       0.073200
     26 H3A          0.4090    -2.7510     1.1060 hc         1 KDR       0.073200
     27 H6          -0.3050     0.5390    -1.0500 h1         1 KDR       0.041700
     28 H7          -2.7210     0.4390     0.8060 h1         1 KDR       0.115700
     29 HO7         -3.4290     1.9880    -0.9530 ho         1 KDR       0.493000
     30 H8          -1.2790     2.2380     1.5550 h1         1 KDR       0.023200
     31 H8A         -1.0290     2.8190    -0.1020 h1         1 KDR       0.023200
     32 HO8         -2.6660     4.0090     1.1090 ho         1 KDR       0.442000
     33 H5          -1.7880    -1.2950    -1.7410 h1         1 KDR       0.059700
     34 HO5         -1.8980    -3.0470    -0.0200 ho         1 KDR       0.521000
     35 H4           0.5920    -1.7480    -1.7970 h1         1 KDR       0.054700
     36 HO4          0.5170    -3.9940    -1.6310 ho         1 KDR       0.455000
@<TRIPOS>BOND
     1     1     2 2   
     2     1    19 1   
     3     1    20 1   
     4     2     3 1   
     5     2    21 1   
     6     3     4 1   
     7     3    22 1   
     8     3    23 1   
     9     4     5 1   
    10     5     6 1   
    11     5     8 1   
    12     5     9 1   
    13     6     7 2   
    14     6    24 1   
    15     8    17 1   
    16     8    25 1   
    17     8    26 1   
    18     9    10 1   
    19    10    11 1   
    20    10    15 1   
    21    10    27 1   
    22    11    12 1   
    23    11    13 1   
    24    11    28 1   
    25    12    29 1   
    26    13    14 1   
    27    13    30 1   
    28    13    31 1   
    29    14    32 1   
    30    15    16 1   
    31    15    17 1   
    32    15    33 1   
    33    16    34 1   
    34    17    18 1   
    35    17    35 1   
    36    18    36 1   
@<TRIPOS>SUBSTRUCTURE
     1 KDR         1 TEMP              0 ****  ****    0 ROOT
