@<TRIPOS>MOLECULE
KDS
   53    56     1     0     0
SMALL
No Charge or Current Charge


@<TRIPOS>ATOM
      1 C13          4.6600    -1.0830     0.6790 ca         1 KDS      -0.075500
      2 C17         -2.2110     3.2960    -0.7900 c6         1 KDS      -0.106400
      3 C20         -5.1400     0.6570    -0.7050 ca         1 KDS      -0.135300
      4 C21         -6.1150     0.9880     0.2570 ca         1 KDS       0.354900
      5 C24         -7.8040    -2.1530     0.8750 ca         1 KDS      -0.080000
      6 C26         -6.8080    -3.8960    -0.5010 ca         1 KDS      -0.104000
      7 C28         -5.9630    -1.6140    -0.6140 ca         1 KDS      -0.080000
      8 O01          1.6820     3.3480    -0.3400 o          1 KDS      -0.614100
      9 C02          1.1070     2.4110     0.1980 c          1 KDS       0.656100
     10 N03          1.7320     1.2090     0.5100 ns         1 KDS      -0.167000
     11 C04          3.0570     0.7320     0.3120 ca         1 KDS      -0.001000
     12 C05          4.0570     1.4510    -0.3780 ca         1 KDS      -0.133000
     13 C06          5.3450     0.9060    -0.5330 ca         1 KDS      -0.075500
     14 C07          5.6590    -0.3580    -0.0100 ca         1 KDS       0.063100
     15 O08          6.9480    -0.8250    -0.2040 os         1 KDS      -0.397100
     16 C09          7.4270    -2.1010     0.2700 c3         1 KDS       0.512000
     17 F10          7.3560    -2.2020     1.6180 f          1 KDS      -0.111000
     18 F11          6.7350    -3.1350    -0.2630 f          1 KDS      -0.111000
     19 F12          8.7220    -2.2790    -0.0690 f          1 KDS      -0.111000
     20 C14          3.3740    -0.5370     0.8330 ca         1 KDS      -0.133000
     21 N15         -0.2630     2.5020     0.5480 n          1 KDS      -0.406800
     22 C16         -1.0900     3.6870     0.2020 c6         1 KDS       0.093000
     23 C18         -3.0840     2.1400    -0.2280 c6         1 KDS      -0.057700
     24 C19         -4.1870     1.7190    -1.2430 c3         1 KDS      -0.024100
     25 N22         -6.9830     0.0890     0.7750 nb         1 KDS      -0.656000
     26 C23         -6.9150    -1.1960     0.3520 ca         1 KDS       0.264000
     27 C25         -7.7550    -3.4940     0.4550 ca         1 KDS      -0.102000
     28 C27         -5.9120    -2.9570    -1.0360 ca         1 KDS      -0.094000
     29 C29         -5.0650    -0.6740    -1.1490 ca         1 KDS      -0.063000
     30 C30         -2.1800     0.9440     0.1870 c6         1 KDS      -0.106400
     31 C31         -1.0620     1.3990     1.1550 c6         1 KDS       0.093000
     32 H1           4.8570    -2.0640     1.0990 ha         1 KDS       0.134500
     33 H2          -2.8360     4.1750    -1.0010 hc         1 KDS       0.051700
     34 H3          -1.7600     2.9950    -1.7450 hc         1 KDS       0.051700
     35 H4          -6.2040     2.0090     0.6270 h4         1 KDS       0.017100
     36 H5          -8.5400    -1.8500     1.6160 ha         1 KDS       0.132000
     37 H6          -6.7690    -4.9330    -0.8270 ha         1 KDS       0.116000
     38 H7           1.1280     0.5390     0.9620 hn         1 KDS       0.149000
     39 H8           3.8610     2.4290    -0.8050 ha         1 KDS       0.129500
     40 H9           6.1070     1.4700    -1.0670 ha         1 KDS       0.134500
     41 H10          2.6160    -1.1080     1.3650 ha         1 KDS       0.129500
     42 H11         -0.4770     4.4860    -0.2370 h1         1 KDS       0.063200
     43 H12         -1.5370     4.0920     1.1220 h1         1 KDS       0.063200
     44 H13         -3.6050     2.5080     0.6670 hc         1 KDS       0.052700
     45 H14         -3.7180     1.3650    -2.1700 hc         1 KDS       0.052700
     46 H15         -4.7700     2.6020    -1.5320 hc         1 KDS       0.052700
     47 H16         -8.4510    -4.2200     0.8700 ha         1 KDS       0.118000
     48 H17         -5.1800    -3.2740    -1.7760 ha         1 KDS       0.114000
     49 H18         -4.3240    -0.9710    -1.8880 ha         1 KDS       0.116000
     50 H19         -2.7790     0.1610     0.6710 hc         1 KDS       0.051700
     51 H20         -1.7270     0.4880    -0.7040 hc         1 KDS       0.051700
     52 H21         -0.4440     0.5330     1.4270 h1         1 KDS       0.063200
     53 H22         -1.5180     1.7650     2.0860 h1         1 KDS       0.063200
@<TRIPOS>BOND
     1     1    14 ar  
     2     1    20 ar  
     3     1    32 1   
     4     2    22 1   
     5     2    23 1   
     6     2    33 1   
     7     2    34 1   
     8     3     4 ar  
     9     3    24 1   
    10     3    29 ar  
    11     4    25 ar  
    12     4    35 1   
    13     5    26 ar  
    14     5    27 ar  
    15     5    36 1   
    16     6    27 ar  
    17     6    28 ar  
    18     6    37 1   
    19     7    26 ar  
    20     7    28 ar  
    21     7    29 ar  
    22     8     9 2   
    23     9    10 1   
    24     9    21 1   
    25    10    11 1   
    26    10    38 1   
    27    11    12 ar  
    28    11    20 ar  
    29    12    13 ar  
    30    12    39 1   
    31    13    14 ar  
    32    13    40 1   
    33    14    15 1   
    34    15    16 1   
    35    16    17 1   
    36    16    18 1   
    37    16    19 1   
    38    20    41 1   
    39    21    22 1   
    40    21    31 1   
    41    22    42 1   
    42    22    43 1   
    43    23    24 1   
    44    23    30 1   
    45    23    44 1   
    46    24    45 1   
    47    24    46 1   
    48    25    26 ar  
    49    27    47 1   
    50    28    48 1   
    51    29    49 1   
    52    30    31 1   
    53    30    50 1   
    54    30    51 1   
    55    31    52 1   
    56    31    53 1   
@<TRIPOS>SUBSTRUCTURE
     1 KDS         1 TEMP              0 ****  ****    0 ROOT
