@<TRIPOS>MOLECULE
KDS
   53    56     1     0     0
SMALL
bcc


@<TRIPOS>ATOM
      1 C13          4.1280    -1.2390    -0.5820 ca         1 KDS      -0.093500
      2 C17         -1.9710     3.1400    -0.8110 c6         1 KDS      -0.106400
      3 C20         -4.8390     0.5460    -0.8620 ca         1 KDS      -0.200600
      4 C21         -6.0010     1.0140    -0.1990 ca         1 KDS       0.420200
      5 C24         -7.8040    -1.9320     0.7110 ca         1 KDS      -0.163300
      6 C26         -6.5810    -3.8740    -0.0370 ca         1 KDS      -0.122000
      7 C28         -5.6840    -1.6760    -0.4660 ca         1 KDS      -0.145300
      8 O01          1.6820     3.0920    -0.1980 o          1 KDS      -0.614100
      9 C02          0.9900     2.2600     0.3700 c          1 KDS       0.790100
     10 N03          1.4540     0.9830     0.6160 ns         1 KDS      -0.493100
     11 C04          2.7330     0.5430     0.2720 ca         1 KDS       0.091600
     12 C05          3.8740     1.3180     0.4860 ca         1 KDS      -0.151000
     13 C06          5.1250     0.8230     0.1580 ca         1 KDS      -0.093500
     14 C07          5.2440    -0.4490    -0.3740 ca         1 KDS       0.063100
     15 O08          6.4990    -0.9120    -0.7600 os         1 KDS      -0.373900
     16 C09          7.2050    -1.6140     0.1330 c3         1 KDS       0.852700
     17 F10          7.4510    -0.9310     1.2520 f          1 KDS      -0.232300
     18 F11          6.5990    -2.7460     0.4990 f          1 KDS      -0.232300
     19 F12          8.3640    -1.9270    -0.4270 f          1 KDS      -0.232300
     20 C14          2.8770    -0.7360    -0.2640 ca         1 KDS      -0.151000
     21 N15         -0.2630     2.5330     0.8240 n          1 KDS      -0.473800
     22 C16         -0.9950     3.6480     0.2450 c6         1 KDS       0.093000
     23 C18         -2.9180     2.0790    -0.2480 c6         1 KDS      -0.057700
     24 C19         -3.8150     1.5210    -1.3600 c3         1 KDS      -0.024100
     25 N22         -6.9360     0.2520     0.2970 nb         1 KDS      -0.656000
     26 C23         -6.8010    -1.0920     0.1790 ca         1 KDS       0.394600
     27 C25         -7.6950    -3.2920     0.6050 ca         1 KDS      -0.120000
     28 C27         -5.5960    -3.0830    -0.5620 ca         1 KDS      -0.112000
     29 C29         -4.6990    -0.8090    -0.9880 ca         1 KDS      -0.081000
     30 C30         -2.1310     0.9780     0.4640 c6         1 KDS      -0.106400
     31 C31         -1.1490     1.5760     1.4650 c6         1 KDS       0.093000
     32 H1           4.2180    -2.2270    -1.0150 ha         1 KDS       0.152500
     33 H2          -2.5450     3.9800    -1.2100 hc         1 KDS       0.051700
     34 H3          -1.4020     2.7190    -1.6470 hc         1 KDS       0.051700
     35 H4          -6.1450     2.0860    -0.0920 h4         1 KDS       0.017100
     36 H5          -8.6560    -1.4760     1.1990 ha         1 KDS       0.150000
     37 H6          -6.5100    -4.9510    -0.1130 ha         1 KDS       0.134000
     38 H7           0.7760     0.2480     0.7450 hn         1 KDS       0.315500
     39 H8           3.7990     2.3030     0.9220 ha         1 KDS       0.147500
     40 H9           6.0020     1.4370     0.3140 ha         1 KDS       0.152500
     41 H10          2.0010    -1.3470    -0.4430 ha         1 KDS       0.147500
     42 H11         -0.3020     4.3700    -0.1770 h1         1 KDS       0.063200
     43 H12         -1.5400     4.1520     1.0490 h1         1 KDS       0.063200
     44 H13         -3.5610     2.5660     0.4980 hc         1 KDS       0.052700
     45 H14         -3.1880     1.0400    -2.1160 hc         1 KDS       0.052700
     46 H15         -4.3170     2.3580    -1.8550 hc         1 KDS       0.052700
     47 H16         -8.4670    -3.9300     1.0140 ha         1 KDS       0.136000
     48 H17         -4.7380    -3.5250    -1.0550 ha         1 KDS       0.132000
     49 H18         -3.8310    -1.2300    -1.4840 ha         1 KDS       0.134000
     50 H19         -2.8060     0.3010     0.9910 hc         1 KDS       0.051700
     51 H20         -1.5890     0.3720    -0.2730 hc         1 KDS       0.051700
     52 H21         -0.5870     0.8100     1.9950 h1         1 KDS       0.063200
     53 H22         -1.7030     2.1170     2.2380 h1         1 KDS       0.063200
@<TRIPOS>BOND
     1     1    14 ar  
     2     1    20 ar  
     3     1    32 1   
     4     2    22 1   
     5     2    23 1   
     6     2    33 1   
     7     2    34 1   
     8     3     4 ar  
     9     3    24 1   
    10     3    29 ar  
    11     4    25 ar  
    12     4    35 1   
    13     5    26 ar  
    14     5    27 ar  
    15     5    36 1   
    16     6    27 ar  
    17     6    28 ar  
    18     6    37 1   
    19     7    26 ar  
    20     7    28 ar  
    21     7    29 ar  
    22     8     9 2   
    23     9    10 1   
    24     9    21 1   
    25    10    11 1   
    26    10    38 1   
    27    11    12 ar  
    28    11    20 ar  
    29    12    13 ar  
    30    12    39 1   
    31    13    14 ar  
    32    13    40 1   
    33    14    15 1   
    34    15    16 1   
    35    16    17 1   
    36    16    18 1   
    37    16    19 1   
    38    20    41 1   
    39    21    22 1   
    40    21    31 1   
    41    22    42 1   
    42    22    43 1   
    43    23    24 1   
    44    23    30 1   
    45    23    44 1   
    46    24    45 1   
    47    24    46 1   
    48    25    26 ar  
    49    27    47 1   
    50    28    48 1   
    51    29    49 1   
    52    30    31 1   
    53    30    50 1   
    54    30    51 1   
    55    31    52 1   
    56    31    53 1   
@<TRIPOS>SUBSTRUCTURE
     1 KDS         1 TEMP              0 ****  ****    0 ROOT
