@<TRIPOS>MOLECULE
KDT
   45    47     1     0     0
SMALL
bcc


@<TRIPOS>ATOM
      1 CAW         -3.6230    -2.2840    -0.5260 ca         1 KDT      -0.105500
      2 CAX         -4.9280    -1.8100    -0.5270 ca         1 KDT      -0.103000
      3 CBA         -5.2450    -0.7150     0.2600 ca         1 KDT      -0.006900
      4 BRBB        -7.0130    -0.0520     0.2650 br         1 KDT      -0.090100
      5 CAZ         -4.2830    -0.0960     1.0440 ca         1 KDT      -0.103000
      6 CAY         -2.9860    -0.5890     1.0380 ca         1 KDT      -0.105500
      7 CAV         -2.6410    -1.6860     0.2540 ca         1 KDT      -0.107300
      8 CAT         -1.2390    -2.2360     0.2450 c3         1 KDT       0.152300
      9 NAN         -0.2380    -1.2200    -0.0840 n          1 KDT      -0.403000
     10 CAO          0.5220    -0.5800     0.8650 cc         1 KDT       0.412600
     11 NAU          0.3190    -0.8600     2.1520 nv         1 KDT      -0.839600
     12 CAM         -0.1590    -0.8860    -1.4300 c          1 KDT       0.837500
     13 OAL         -0.8470    -1.4400    -2.2600 o          1 KDT      -0.623500
     14 NAD          0.7270     0.0940    -1.7470 ns         1 KDT      -0.597500
     15 CAE          1.5560     0.7930    -0.8760 c          1 KDT       0.747700
     16 OAA          2.2720     1.6840    -1.3010 o          1 KDT      -0.616500
     17 CAF          1.4540     0.3740     0.4820 cd         1 KDT      -0.264200
     18 NAG          2.1970     1.0290     1.4860 nh         1 KDT      -0.581300
     19 CAB          1.9800     2.4580     1.7130 c3         1 KDT       0.199100
     20 SAH          3.7030     0.3940     1.8080 sy         1 KDT       1.296200
     21 OAP          4.2800     1.2150     2.8610 o          1 KDT      -0.622300
     22 OAC          3.5190    -1.0320     2.0290 o          1 KDT      -0.622300
     23 CAI          4.6710     0.5880     0.3430 ca         1 KDT      -0.279500
     24 CAJ          5.3250     1.7920     0.1190 ca         1 KDT      -0.024500
     25 CAK          6.0410     1.9580    -1.0560 ca         1 KDT      -0.145500
     26 CAS          6.0980     0.9300    -1.9890 ca         1 KDT      -0.070000
     27 CAR          5.4460    -0.2710    -1.7480 ca         1 KDT      -0.145500
     28 CAQ          4.7270    -0.4510    -0.5760 ca         1 KDT      -0.024500
     29 HAW         -3.3750    -3.1340    -1.1490 ha         1 KDT       0.140000
     30 HAX         -5.6730    -2.2920    -1.1460 ha         1 KDT       0.152000
     31 HAZ         -4.5270     0.7590     1.6600 ha         1 KDT       0.152000
     32 HAY         -2.2510    -0.0970     1.6630 ha         1 KDT       0.140000
     33 HAT1        -0.9910    -2.6880     1.2020 h1         1 KDT       0.071200
     34 HAT2        -1.1540    -3.0420    -0.4810 h1         1 KDT       0.071200
     35 HAU1        -0.1950    -1.6620     2.4670 hn         1 KDT       0.453300
     36 HAU2         0.9630    -0.4660     2.8180 hn         1 KDT       0.453300
     37 HAD          0.7640     0.3540    -2.7240 hn         1 KDT       0.348500
     38 HAB1         2.2010     2.7180     2.7440 h1         1 KDT       0.053033
     39 HAB2         2.5630     3.0920     1.0450 h1         1 KDT       0.053033
     40 HAB3         0.9250     2.6500     1.5360 h1         1 KDT       0.053033
     41 HAJ          5.2900     2.5920     0.8470 ha         1 KDT       0.148500
     42 HAQ          4.2260    -1.3900    -0.3850 ha         1 KDT       0.148500
     43 HAK          6.5600     2.8890    -1.2400 ha         1 KDT       0.134000
     44 HAS          6.6610     1.0640    -2.9040 ha         1 KDT       0.131000
     45 HAR          5.4990    -1.0740    -2.4700 ha         1 KDT       0.134000
@<TRIPOS>BOND
     1     1     2 ar  
     2     1     7 ar  
     3     1    29 1   
     4     2     3 ar  
     5     2    30 1   
     6     3     4 1   
     7     3     5 ar  
     8     5     6 ar  
     9     5    31 1   
    10     6     7 ar  
    11     6    32 1   
    12     7     8 1   
    13     8     9 1   
    14     8    33 1   
    15     8    34 1   
    16     9    10 1   
    17     9    12 1   
    18    10    11 1   
    19    10    17 2   
    20    11    35 1   
    21    11    36 1   
    22    12    13 2   
    23    12    14 1   
    24    14    15 1   
    25    14    37 1   
    26    15    16 2   
    27    15    17 1   
    28    17    18 1   
    29    18    19 1   
    30    18    20 1   
    31    19    38 1   
    32    19    39 1   
    33    19    40 1   
    34    20    21 2   
    35    20    22 2   
    36    20    23 1   
    37    23    24 ar  
    38    23    28 ar  
    39    24    25 ar  
    40    24    41 1   
    41    25    26 ar  
    42    25    43 1   
    43    26    27 ar  
    44    26    44 1   
    45    27    28 ar  
    46    27    45 1   
    47    28    42 1   
@<TRIPOS>SUBSTRUCTURE
     1 KDT         1 TEMP              0 ****  ****    0 ROOT
