@<TRIPOS>MOLECULE
KDT
   45    47     1     0     0
SMALL
No Charge or Current Charge


@<TRIPOS>ATOM
      1 CAW         -3.0520    -2.0450    -1.1330 ca         1 KDT      -0.087500
      2 CAX         -4.4320    -1.8760    -0.9240 ca         1 KDT      -0.085000
      3 CBA         -4.9010    -1.3930     0.3080 ca         1 KDT      -0.006900
      4 BrBB        -6.7780    -1.1620     0.5920 br         1 KDT      -0.090100
      5 CAZ         -3.9930    -1.0790     1.3330 ca         1 KDT      -0.085000
      6 CAY         -2.6130    -1.2480     1.1240 ca         1 KDT      -0.087500
      7 CAV         -2.1330    -1.7320    -0.1100 ca         1 KDT      -0.107300
      8 CAT         -0.6350    -1.9120    -0.3410 c3         1 KDT       0.152300
      9 NAN          0.1050    -0.6200    -0.4310 n          1 KDT      -0.336000
     10 CAO          0.8060    -0.0590     0.6360 cc         1 KDT       0.412600
     11 NAU          0.8530    -0.7610     1.7980 nv         1 KDT      -0.950000
     12 CAM          0.0260     0.0600    -1.6560 c          1 KDT       0.628000
     13 OAL         -0.5530    -0.3780    -2.6370 o          1 KDT      -0.548000
     14 NAD          0.6320     1.2650    -1.7180 ns         1 KDT      -0.463500
     15 CAE          1.3200     1.9130    -0.7530 c          1 KDT       0.605200
     16 OAA          1.8130     3.0090    -0.9690 o          1 KDT      -0.541000
     17 CAF          1.4200     1.1780     0.5380 cd         1 KDT      -0.264200
     18 NAG          2.1630     1.7180     1.6380 nh         1 KDT      -0.581300
     19 CAB          1.7970     3.0310     2.2000 c3         1 KDT       0.199100
     20 SAH          3.6830     1.0980     2.1510 sy         1 KDT       1.154600
     21 OAP          4.5280     2.2400     2.5230 o          1 KDT      -0.551500
     22 OAC          3.3890     0.0130     3.0950 o          1 KDT      -0.551500
     23 CAI          4.2780     0.4020     0.5970 ca         1 KDT      -0.279500
     24 CAJ          4.8140     1.2560    -0.3890 ca         1 KDT      -0.006500
     25 CAK          5.2460     0.7260    -1.6170 ca         1 KDT      -0.127500
     26 CAS          5.1450    -0.6530    -1.8670 ca         1 KDT      -0.052000
     27 CAR          4.6100    -1.5050    -0.8860 ca         1 KDT      -0.127500
     28 CAQ          4.1760    -0.9820     0.3440 ca         1 KDT      -0.006500
     29 HAW         -2.6980    -2.4150    -2.0930 ha         1 KDT       0.122000
     30 HAX         -5.1350    -2.1180    -1.7180 ha         1 KDT       0.134000
     31 HAZ         -4.3570    -0.7040     2.2870 ha         1 KDT       0.134000
     32 HAY         -1.9190    -0.9980     1.9240 ha         1 KDT       0.122000
     33 HAT1        -0.2270    -2.5520     0.4500 h1         1 KDT       0.071200
     34 HAT2        -0.4780    -2.4750    -1.2700 h1         1 KDT       0.071200
     35 HAU1         0.7620    -1.7670     1.7690 hn         1 KDT       0.508500
     36 HAU2         1.4980    -0.3980     2.4970 hn         1 KDT       0.508500
     37 HAD          0.5630     1.7430    -2.6010 hn         1 KDT       0.348500
     38 HAB1         1.9300     3.0400     3.2900 h1         1 KDT       0.053033
     39 HAB2         2.4180     3.8240     1.7630 h1         1 KDT       0.053033
     40 HAB3         0.7460     3.2600     1.9830 h1         1 KDT       0.053033
     41 HAJ          4.8840     2.3280    -0.2110 ha         1 KDT       0.130500
     42 HAQ          3.7580    -1.6550     1.0920 ha         1 KDT       0.130500
     43 HAK          5.6560     1.3870    -2.3780 ha         1 KDT       0.116000
     44 HAS          5.4780    -1.0600    -2.8190 ha         1 KDT       0.113000
     45 HAR          4.5290    -2.5720    -1.0800 ha         1 KDT       0.116000
@<TRIPOS>BOND
     1     1     2 ar  
     2     1     7 ar  
     3     1    29 1   
     4     2     3 ar  
     5     2    30 1   
     6     3     4 1   
     7     3     5 ar  
     8     5     6 ar  
     9     5    31 1   
    10     6     7 ar  
    11     6    32 1   
    12     7     8 1   
    13     8     9 1   
    14     8    33 1   
    15     8    34 1   
    16     9    10 1   
    17     9    12 1   
    18    10    11 1   
    19    10    17 2   
    20    11    35 1   
    21    11    36 1   
    22    12    13 2   
    23    12    14 1   
    24    14    15 1   
    25    14    37 1   
    26    15    16 2   
    27    15    17 1   
    28    17    18 1   
    29    18    19 1   
    30    18    20 1   
    31    19    38 1   
    32    19    39 1   
    33    19    40 1   
    34    20    21 2   
    35    20    22 2   
    36    20    23 1   
    37    23    24 ar  
    38    23    28 ar  
    39    24    25 ar  
    40    24    41 1   
    41    25    26 ar  
    42    25    43 1   
    43    26    27 ar  
    44    26    44 1   
    45    27    28 ar  
    46    27    45 1   
    47    28    42 1   
@<TRIPOS>SUBSTRUCTURE
     1 KDT         1 TEMP              0 ****  ****    0 ROOT
