@<TRIPOS>MOLECULE
KDV
   18    19     1     0     0
SMALL
No Charge or Current Charge


@<TRIPOS>ATOM
      1 C2          -3.1780    -0.2970    -0.0320 cg         1 KDV       0.325000
      2 C3          -1.7840     0.0270    -0.0220 ca         1 KDV      -0.079000
      3 C6           0.8800     0.7870    -0.0000 ca         1 KDV       0.281000
      4 C7           2.2380     1.1530     0.0100 ca         1 KDV      -0.085000
      5 C8           3.2510     0.1770    -0.0020 ca         1 KDV      -0.091000
      6 C10          1.5630    -1.5720    -0.0360 ca         1 KDV      -0.085000
      7 C11          0.5500    -0.5930    -0.0240 ca         1 KDV      -0.091000
      8 C12         -0.8030    -0.9780    -0.0350 ca         1 KDV      -0.014000
      9 N1          -4.3120    -0.5730    -0.0410 n1         1 KDV      -0.442000
     10 C4          -1.3770     1.3700     0.0010 ca         1 KDV       0.385900
     11 N5          -0.0750     1.7470     0.0120 nb         1 KDV      -0.657000
     12 C9           2.9130    -1.1850    -0.0250 ca         1 KDV      -0.105000
     13 H14          2.5070     2.2050     0.0280 ha         1 KDV       0.136000
     14 H15          4.2970     0.4780     0.0070 ha         1 KDV       0.120000
     15 H17          1.3080    -2.6290    -0.0540 ha         1 KDV       0.119000
     16 H18         -1.0840    -2.0300    -0.0530 ha         1 KDV       0.131000
     17 H13         -2.1110     2.1760     0.0110 h4         1 KDV       0.031100
     18 H16          3.6960    -1.9410    -0.0340 ha         1 KDV       0.119000
@<TRIPOS>BOND
     1     1     2 1   
     2     1     9 3   
     3     2     8 ar  
     4     2    10 ar  
     5     3     4 ar  
     6     3     7 ar  
     7     3    11 ar  
     8     4     5 ar  
     9     4    13 1   
    10     5    12 ar  
    11     5    14 1   
    12     6     7 ar  
    13     6    12 ar  
    14     6    15 1   
    15     7     8 ar  
    16     8    16 1   
    17    10    11 ar  
    18    10    17 1   
    19    12    18 1   
@<TRIPOS>SUBSTRUCTURE
     1 KDV         1 TEMP              0 ****  ****    0 ROOT
