@<TRIPOS>MOLECULE
KDV
   18    19     1     0     0
SMALL
abcg2


@<TRIPOS>ATOM
      1 C2          -3.1450    -0.2880    -0.0400 cg         1 KDV       0.325000
      2 C3          -1.7560     0.0180    -0.0210 ca         1 KDV      -0.079000
      3 C6           0.8690     0.7570     0.0030 ca         1 KDV       0.281000
      4 C7           2.2260     1.1440     0.0100 ca         1 KDV      -0.085000
      5 C8           3.2110     0.1950    -0.0060 ca         1 KDV      -0.091000
      6 C10          1.5850    -1.5830    -0.0330 ca         1 KDV      -0.085000
      7 C11          0.5460    -0.6250    -0.0180 ca         1 KDV      -0.091000
      8 C12         -0.8150    -0.9780    -0.0280 ca         1 KDV      -0.014000
      9 N1          -4.2720    -0.5240    -0.0570 n1         1 KDV      -0.442000
     10 C4          -1.3290     1.3720     0.0040 ca         1 KDV       0.385900
     11 N5          -0.0800     1.7230     0.0170 nb         1 KDV      -0.657000
     12 C9           2.8900    -1.1780    -0.0280 ca         1 KDV      -0.105000
     13 H14          2.4600     2.2000     0.0270 ha         1 KDV       0.136000
     14 H15          4.2500     0.4960    -0.0020 ha         1 KDV       0.120000
     15 H17          1.3380    -2.6370    -0.0490 ha         1 KDV       0.119000
     16 H18         -1.1100    -2.0190    -0.0420 ha         1 KDV       0.131000
     17 H13         -2.0720     2.1610     0.0150 h4         1 KDV       0.031100
     18 H16          3.6840    -1.9110    -0.0410 ha         1 KDV       0.119000
@<TRIPOS>BOND
     1     1     2 1   
     2     1     9 3   
     3     2     8 ar  
     4     2    10 ar  
     5     3     4 ar  
     6     3     7 ar  
     7     3    11 ar  
     8     4     5 ar  
     9     4    13 1   
    10     5    12 ar  
    11     5    14 1   
    12     6     7 ar  
    13     6    12 ar  
    14     6    15 1   
    15     7     8 ar  
    16     8    16 1   
    17    10    11 ar  
    18    10    17 1   
    19    12    18 1   
@<TRIPOS>SUBSTRUCTURE
     1 KDV         1 TEMP              0 ****  ****    0 ROOT
