@<TRIPOS>MOLECULE
KDW
  126   131     1     0     0
SMALL
No Charge or Current Charge


@<TRIPOS>ATOM
      1 N1          -8.7580    -1.8680     0.8370 n7         1 KDW      -0.849400
      2 N3          -9.5310    -5.2690    -3.5450 n1         1 KDW      -0.448500
      3 C4          -9.2560    -0.4990     1.0460 c3         1 KDW       0.221600
      4 C5          -8.0860     0.4760     1.0370 ca         1 KDW      -0.143800
      5 C6          -7.3920     0.7450    -0.1600 ca         1 KDW       0.172100
      6 C7          -7.1150     0.1920    -2.5630 c3         1 KDW       0.219400
      7 C8          -7.8280    -0.7180    -3.5500 ca         1 KDW      -0.148300
      8 C10         -9.1740    -2.2770    -5.3840 ca         1 KDW       0.384900
      9 C13         -9.2190    -4.1790    -3.8240 cg         1 KDW       0.332500
     10 C15         -5.9240     2.2900     1.0330 ca         1 KDW       0.183100
     11 C1         -11.1670    -5.7800     0.2580 c          1 KDW       0.599100
     12 C11         -8.8400    -2.8350    -4.1380 ca         1 KDW      -0.077500
     13 C12         -8.1460    -2.0460    -3.2060 ca         1 KDW      -0.013000
     14 C14         -6.3130     1.6500    -0.1630 ca         1 KDW      -0.282500
     15 C16         -4.1120     3.5440    -0.0930 c3         1 KDW       0.211400
     16 C2          -9.1590    -4.2540     0.2220 c3         1 KDW       0.101000
     17 C3          -9.7890    -2.8600     0.4640 c3         1 KDW       0.129300
     18 C9          -8.2020    -0.2440    -4.8220 ca         1 KDW       0.371400
     19 N2          -8.8610    -1.0040    -5.7300 nb         1 KDW      -0.662500
     20 O1          -7.8010     0.0900    -1.3050 os         1 KDW      -0.359100
     21 O2          -4.8730     3.1860     1.0740 os         1 KDW      -0.342600
     22 O3           4.7760     3.1490    -1.0660 os         1 KDW      -0.342600
     23 N          -10.0940    -5.2090    -0.3850 ns         1 KDW      -0.511400
     24 C          -12.0050    -6.7110    -0.6080 c3         1 KDW      -0.181100
     25 O          -11.4270    -5.5610     1.4320 o          1 KDW      -0.605600
     26 C17         -3.0460     4.5790     0.2950 ca         1 KDW      -0.092800
     27 C18         -3.4130     5.6240     1.1700 ca         1 KDW      -0.078000
     28 C19         -2.4830     6.5960     1.5590 ca         1 KDW      -0.116000
     29 C20         -1.1710     6.5350     1.0780 ca         1 KDW      -0.093000
     30 C21         -0.7650     5.5080     0.1970 cp         1 KDW      -0.038000
     31 C22         -1.7180     4.5280    -0.2160 ca         1 KDW      -0.057300
     32 C23         -1.3270     3.4330    -1.2150 c3         1 KDW      -0.054800
     33 C24          0.6530     5.4960    -0.2750 cp         1 KDW      -0.038000
     34 C25          1.0650     6.4930    -1.1870 ca         1 KDW      -0.093000
     35 C26          2.3780     6.5310    -1.6690 ca         1 KDW      -0.116000
     36 C27          3.3020     5.5650    -1.2510 ca         1 KDW      -0.078000
     37 C28          2.9280     4.5500    -0.3440 ca         1 KDW      -0.092800
     38 C29          1.6000     4.5240     0.1690 ca         1 KDW      -0.057300
     39 C30          1.2030     3.4640     1.2030 c3         1 KDW      -0.054800
     40 C31          3.9840     3.5180     0.0770 c3         1 KDW       0.211400
     41 C32          5.8240     2.2520    -0.9900 ca         1 KDW       0.183100
     42 C33          6.1810     1.6210     0.2200 ca         1 KDW      -0.282500
     43 C34          7.2580     0.7110     0.2550 ca         1 KDW       0.172100
     44 C35          7.9820     0.4340    -0.9220 ca         1 KDW      -0.143800
     45 C36          9.1590    -0.5320    -0.9030 c3         1 KDW       0.221600
     46 C37          9.7320    -2.9420    -0.6800 c3         1 KDW       0.129300
     47 C38          9.1240    -4.3640    -0.5900 c3         1 KDW       0.101000
     48 C39         11.0220    -5.8480    -1.3370 c          1 KDW       0.599100
     49 C40         11.9920    -6.9220    -0.8620 c3         1 KDW      -0.181100
     50 C41          7.6200     1.0650    -2.1270 ca         1 KDW      -0.027000
     51 C42          6.5460     1.9720    -2.1690 ca         1 KDW      -0.136300
     52 C43          6.1720     2.6450    -3.4860 c3         1 KDW      -0.028300
     53 C44          6.9750     0.2860     2.6770 c3         1 KDW       0.219400
     54 C45          7.6450    -0.5930     3.7180 ca         1 KDW      -0.148300
     55 C46          6.8990    -1.5500     4.4310 ca         1 KDW       0.371400
     56 C47          8.7680    -2.2390     5.6220 ca         1 KDW       0.384900
     57 C48          9.5910    -1.3130     4.9590 ca         1 KDW      -0.077500
     58 C49          9.0220    -0.4700     3.9880 ca         1 KDW      -0.013000
     59 C50         10.9840    -1.2410     5.2760 cg         1 KDW       0.332500
     60 C51         -6.6160     2.0210     2.2320 ca         1 KDW      -0.136300
     61 C52         -7.6930     1.1150     2.2270 ca         1 KDW      -0.027000
     62 C53         -6.2070     2.7050     3.5330 c3         1 KDW      -0.028300
     63 N4           8.6750    -1.9180    -0.8120 n7         1 KDW      -0.849400
     64 N5          10.1370    -5.4080    -0.3800 ns         1 KDW      -0.511400
     65 N6           7.4420    -2.3620     5.3690 nb         1 KDW      -0.662500
     66 N7          12.1220    -1.1740     5.5270 n1         1 KDW      -0.448500
     67 O4          11.0290    -5.4150    -2.4800 o          1 KDW      -0.605600
     68 O5           7.6310     0.0650     1.4180 os         1 KDW      -0.359100
     69 H1          -8.0960    -1.7980     0.0570 hn         1 KDW       0.405500
     70 H3          -9.9490    -0.2130     0.2420 h1         1 KDW       0.039950
     71 H4          -9.8070    -0.4280     1.9930 h1         1 KDW       0.039950
     72 H5          -6.0700    -0.1290    -2.4630 h1         1 KDW       0.047700
     73 H6          -7.1280     1.2280    -2.9280 h1         1 KDW       0.047700
     74 H7          -9.7120    -2.8600    -6.1310 h4         1 KDW       0.035600
     75 H8          -7.8710    -2.4480    -2.2330 ha         1 KDW       0.140000
     76 H9          -5.7830     1.8540    -1.0860 ha         1 KDW       0.118000
     77 H10         -3.6490     2.6440    -0.5130 h1         1 KDW       0.040950
     78 H11         -4.7660     3.9820    -0.8580 h1         1 KDW       0.040950
     79 H12         -8.2980    -4.1520    -0.4510 h1         1 KDW       0.057950
     80 H13         -8.7940    -4.6610     1.1740 h1         1 KDW       0.057950
     81 H14        -10.5500    -2.9400     1.2520 h1         1 KDW       0.037200
     82 H15        -10.2960    -2.5420    -0.4580 h1         1 KDW       0.037200
     83 H16         -7.9740     0.7770    -5.1250 h4         1 KDW       0.027100
     84 H17         -9.9650    -5.4580    -1.3610 hn         1 KDW       0.317500
     85 H18        -12.3360    -6.1670    -1.5000 hc         1 KDW       0.059533
     86 H19        -11.3540    -7.4820    -1.0360 hc         1 KDW       0.059533
     87 H20        -12.8490    -7.1500    -0.0640 hc         1 KDW       0.059533
     88 H21         -4.4300     5.6840     1.5540 ha         1 KDW       0.130500
     89 H22         -2.7800     7.3950     2.2350 ha         1 KDW       0.117500
     90 H23         -0.4510     7.2880     1.3910 ha         1 KDW       0.119000
     91 H24         -1.2520     2.4590    -0.7180 hc         1 KDW       0.044700
     92 H25         -2.0670     3.3460    -2.0200 hc         1 KDW       0.044700
     93 H26         -0.3680     3.6240    -1.7060 hc         1 KDW       0.044700
     94 H27          0.3500     7.2410    -1.5230 ha         1 KDW       0.119000
     95 H28          2.6790     7.3070    -2.3690 ha         1 KDW       0.117500
     96 H29          4.3190     5.6080    -1.6350 ha         1 KDW       0.130500
     97 H30          1.9480     3.3890     2.0030 hc         1 KDW       0.044700
     98 H31          0.2500     3.6850     1.6960 hc         1 KDW       0.044700
     99 H32          1.1070     2.4770     0.7340 hc         1 KDW       0.044700
    100 H33          3.5090     2.6210     0.4910 h1         1 KDW       0.040950
    101 H34          4.6180     3.9610     0.8560 h1         1 KDW       0.040950
    102 H35          5.6250     1.8350     1.1250 ha         1 KDW       0.118000
    103 H36          9.7660    -0.3960    -1.8090 h1         1 KDW       0.039950
    104 H37          9.8020    -0.2910    -0.0440 h1         1 KDW       0.039950
    105 H38         10.3280    -2.7570     0.2250 h1         1 KDW       0.037200
    106 H39         10.4130    -2.8990    -1.5410 h1         1 KDW       0.037200
    107 H40          8.4130    -4.4020     0.2450 h1         1 KDW       0.057950
    108 H41          8.5720    -4.5830    -1.5140 h1         1 KDW       0.057950
    109 H42         12.6800    -7.2480    -1.6500 hc         1 KDW       0.059533
    110 H43         12.5300    -6.5540     0.0190 hc         1 KDW       0.059533
    111 H44         11.4200    -7.7630    -0.4520 hc         1 KDW       0.059533
    112 H45          8.1790     0.8470    -3.0350 ha         1 KDW       0.123000
    113 H46          5.1400     2.4070    -3.7690 hc         1 KDW       0.042367
    114 H47          6.2530     3.7360    -3.4060 hc         1 KDW       0.042367
    115 H48          6.8220     2.3260    -4.3090 hc         1 KDW       0.042367
    116 H49          5.9090     0.0320     2.6050 h1         1 KDW       0.047700
    117 H50          7.0610     1.3370     2.9800 h1         1 KDW       0.047700
    118 H51          5.8320    -1.6730     4.2490 h4         1 KDW       0.027100
    119 H52          9.1760    -2.9070     6.3800 h4         1 KDW       0.035600
    120 H53          9.6300     0.2580     3.4530 ha         1 KDW       0.140000
    121 H54         -8.2280     0.9040     3.1510 ha         1 KDW       0.123000
    122 H55         -6.2860     3.7950     3.4450 hc         1 KDW       0.042367
    123 H56         -6.8370     2.3960     4.3750 hc         1 KDW       0.042367
    124 H57         -5.1690     2.4640     3.7930 hc         1 KDW       0.042367
    125 H58          8.0800    -1.9590     0.0230 hn         1 KDW       0.405500
    126 H60         10.2090    -5.8340     0.5370 hn         1 KDW       0.317500
@<TRIPOS>BOND
     1     1     3 1   
     2     1    17 1   
     3     1    69 1   
     4     2     9 3   
     5     3     4 1   
     6     3    70 1   
     7     3    71 1   
     8     4     5 ar  
     9     4    61 ar  
    10     5    14 ar  
    11     5    20 1   
    12     6     7 1   
    13     6    20 1   
    14     6    72 1   
    15     6    73 1   
    16     7    13 ar  
    17     7    18 ar  
    18     8    12 ar  
    19     8    19 ar  
    20     8    74 1   
    21     9    12 1   
    22    10    14 ar  
    23    10    21 1   
    24    10    60 ar  
    25    11    23 1   
    26    11    24 1   
    27    11    25 2   
    28    12    13 ar  
    29    13    75 1   
    30    14    76 1   
    31    15    21 1   
    32    15    26 1   
    33    15    77 1   
    34    15    78 1   
    35    16    17 1   
    36    16    23 1   
    37    16    79 1   
    38    16    80 1   
    39    17    81 1   
    40    17    82 1   
    41    18    19 ar  
    42    18    83 1   
    43    22    40 1   
    44    22    41 1   
    45    23    84 1   
    46    24    85 1   
    47    24    86 1   
    48    24    87 1   
    49    26    27 ar  
    50    26    31 ar  
    51    27    28 ar  
    52    27    88 1   
    53    28    29 ar  
    54    28    89 1   
    55    29    30 ar  
    56    29    90 1   
    57    30    31 ar  
    58    30    33 1   
    59    31    32 1   
    60    32    91 1   
    61    32    92 1   
    62    32    93 1   
    63    33    34 ar  
    64    33    38 ar  
    65    34    35 ar  
    66    34    94 1   
    67    35    36 ar  
    68    35    95 1   
    69    36    37 ar  
    70    36    96 1   
    71    37    38 ar  
    72    37    40 1   
    73    38    39 1   
    74    39    97 1   
    75    39    98 1   
    76    39    99 1   
    77    40   100 1   
    78    40   101 1   
    79    41    42 ar  
    80    41    51 ar  
    81    42    43 ar  
    82    42   102 1   
    83    43    44 ar  
    84    43    68 1   
    85    44    45 1   
    86    44    50 ar  
    87    45    63 1   
    88    45   103 1   
    89    45   104 1   
    90    46    47 1   
    91    46    63 1   
    92    46   105 1   
    93    46   106 1   
    94    47    64 1   
    95    47   107 1   
    96    47   108 1   
    97    48    49 1   
    98    48    64 1   
    99    48    67 2   
   100    49   109 1   
   101    49   110 1   
   102    49   111 1   
   103    50    51 ar  
   104    50   112 1   
   105    51    52 1   
   106    52   113 1   
   107    52   114 1   
   108    52   115 1   
   109    53    54 1   
   110    53    68 1   
   111    53   116 1   
   112    53   117 1   
   113    54    55 ar  
   114    54    58 ar  
   115    55    65 ar  
   116    55   118 1   
   117    56    57 ar  
   118    56    65 ar  
   119    56   119 1   
   120    57    58 ar  
   121    57    59 1   
   122    58   120 1   
   123    59    66 3   
   124    60    61 ar  
   125    60    62 1   
   126    61   121 1   
   127    62   122 1   
   128    62   123 1   
   129    62   124 1   
   130    63   125 1   
   131    64   126 1   
@<TRIPOS>SUBSTRUCTURE
     1 KDW         1 TEMP              0 ****  ****    0 ROOT
