@<TRIPOS>MOLECULE
KDW
  126   131     1     0     0
SMALL
abcg2


@<TRIPOS>ATOM
      1 N1          -9.2350    -1.3520     1.0220 n7         1 KDW      -0.849400
      2 N3          -9.8000    -5.2710    -2.4340 n1         1 KDW      -0.448500
      3 C4          -9.5240     0.0060     0.5720 c3         1 KDW       0.221600
      4 C5          -8.3220     0.9020     0.6680 ca         1 KDW      -0.143800
      5 C6          -7.2960     0.8270    -0.2750 ca         1 KDW       0.172100
      6 C7          -6.4500    -0.3460    -2.1890 c3         1 KDW       0.219400
      7 C8          -6.8880    -1.5220    -3.0130 ca         1 KDW      -0.148300
      8 C10         -7.5540    -3.6460    -4.6080 ca         1 KDW       0.384900
      9 C13         -9.0480    -4.5090    -2.8600 cg         1 KDW       0.332500
     10 C15         -6.0770     2.5650     0.8530 ca         1 KDW       0.183100
     11 C1         -11.9700    -4.9980     1.2500 c          1 KDW       0.599100
     12 C11         -8.1230    -3.5390    -3.3410 ca         1 KDW      -0.077500
     13 C12         -7.7820    -2.4600    -2.5310 ca         1 KDW      -0.013000
     14 C14         -6.1750     1.6460    -0.1890 ca         1 KDW      -0.282500
     15 C16         -3.9450     3.3120     0.1120 c3         1 KDW       0.211400
     16 C2          -9.8920    -3.7090     1.0270 c3         1 KDW       0.101000
     17 C3         -10.2680    -2.2870     0.6230 c3         1 KDW       0.129300
     18 C9          -6.3830    -1.7190    -4.2950 ca         1 KDW       0.371400
     19 N2          -6.7000    -2.7490    -5.0680 nb         1 KDW      -0.662500
     20 O1          -7.4750    -0.0790    -1.2630 os         1 KDW      -0.359100
     21 O2          -5.0300     3.4010     1.0040 os         1 KDW      -0.342600
     22 O3           5.0630     3.3830    -1.1280 os         1 KDW      -0.342600
     23 N          -10.8540    -4.6840     0.5710 ns         1 KDW      -0.511400
     24 C          -12.8770    -5.9970     0.5760 c3         1 KDW      -0.181100
     25 O          -12.2380    -4.5190     2.3440 o          1 KDW      -0.605600
     26 C17         -2.9070     4.3400     0.4700 ca         1 KDW      -0.092800
     27 C18         -3.1740     5.3540     1.3810 ca         1 KDW      -0.078000
     28 C19         -2.2050     6.3040     1.6720 ca         1 KDW      -0.116000
     29 C20         -0.9670     6.2360     1.0590 ca         1 KDW      -0.093000
     30 C21         -0.6800     5.2190     0.1490 cp         1 KDW      -0.038000
     31 C22         -1.6570     4.2670    -0.1630 ca         1 KDW      -0.057300
     32 C23         -1.3920     3.1680    -1.1530 c3         1 KDW      -0.054800
     33 C24          0.6690     5.1980    -0.4740 cp         1 KDW      -0.038000
     34 C25          0.9810     6.1850    -1.4080 ca         1 KDW      -0.093000
     35 C26          2.2270     6.2200    -2.0070 ca         1 KDW      -0.116000
     36 C27          3.1810     5.2680    -1.6760 ca         1 KDW      -0.078000
     37 C28          2.8890     4.2820    -0.7420 ca         1 KDW      -0.092800
     38 C29          1.6280     4.2390    -0.1280 ca         1 KDW      -0.057300
     39 C30          1.3330     3.1630     0.8790 c3         1 KDW      -0.054800
     40 C31          3.9040     3.2470    -0.3430 c3         1 KDW       0.211400
     41 C32          6.0920     2.5320    -0.9360 ca         1 KDW       0.183100
     42 C33          6.0950     1.5530     0.0550 ca         1 KDW      -0.282500
     43 C34          7.2000     0.7180     0.1920 ca         1 KDW       0.172100
     44 C35          8.3050     0.8420    -0.6510 ca         1 KDW      -0.143800
     45 C36          9.5010    -0.0570    -0.4990 c3         1 KDW       0.221600
     46 C37         10.3560    -2.2970    -0.7050 c3         1 KDW       0.129300
     47 C38         10.0270    -3.7130    -1.1640 c3         1 KDW       0.101000
     48 C39         12.1480    -4.8350    -1.6910 c          1 KDW       0.599100
     49 C40         13.1770    -5.8210    -1.1960 c3         1 KDW      -0.181100
     50 C41          8.2550     1.8260    -1.6300 ca         1 KDW      -0.027000
     51 C42          7.1780     2.6850    -1.8020 ca         1 KDW      -0.136300
     52 C43          7.1700     3.7400    -2.8680 c3         1 KDW      -0.028300
     53 C44          6.1680    -0.5040     1.9700 c3         1 KDW       0.219400
     54 C45          6.5270    -1.6910     2.8070 ca         1 KDW      -0.148300
     55 C46          6.1410    -2.9730     2.4300 ca         1 KDW       0.371400
     56 C47          7.1830    -3.9460     4.1990 ca         1 KDW       0.384900
     57 C48          7.6230    -2.7080     4.6650 ca         1 KDW      -0.077500
     58 C49          7.2900    -1.5590     3.9550 ca         1 KDW      -0.013000
     59 C50          8.4020    -2.6320     5.8560 cg         1 KDW       0.332500
     60 C51         -7.0850     2.6740     1.8160 ca         1 KDW      -0.136300
     61 C52         -8.1800     1.8290     1.6930 ca         1 KDW      -0.027000
     62 C53         -6.9850     3.6750     2.9290 c3         1 KDW      -0.028300
     63 N4           9.2350    -1.4150    -0.9580 n7         1 KDW      -0.849400
     64 N5          11.0910    -4.6490    -0.8830 ns         1 KDW      -0.511400
     65 N6           6.4560    -4.0720     3.1030 nb         1 KDW      -0.662500
     66 N7           9.0320    -2.5790     6.8190 n1         1 KDW      -0.448500
     67 O4          12.2740    -4.2570    -2.7630 o          1 KDW      -0.605600
     68 O5           7.2780    -0.2570     1.1280 os         1 KDW      -0.359100
     69 H1          -8.3480    -1.6480     0.6320 hn         1 KDW       0.405500
     70 H3          -9.9080     0.0170    -0.4590 h1         1 KDW       0.039950
     71 H4         -10.3250     0.4130     1.1960 h1         1 KDW       0.039950
     72 H5          -5.5110    -0.5880    -1.6790 h1         1 KDW       0.047700
     73 H6          -6.2610     0.5170    -2.8370 h1         1 KDW       0.047700
     74 H7          -7.8060    -4.4770    -5.2560 h4         1 KDW       0.035600
     75 H8          -8.2130    -2.3670    -1.5440 ha         1 KDW       0.140000
     76 H9          -5.3960     1.5730    -0.9350 ha         1 KDW       0.118000
     77 H10         -3.5100     2.3050     0.1470 h1         1 KDW       0.040950
     78 H11         -4.2820     3.4770    -0.9210 h1         1 KDW       0.040950
     79 H12         -8.9240    -3.9750     0.5960 h1         1 KDW       0.057950
     80 H13         -9.7850    -3.7760     2.1090 h1         1 KDW       0.057950
     81 H14        -11.2040    -2.0080     1.1140 h1         1 KDW       0.037200
     82 H15        -10.4700    -2.2610    -0.4610 h1         1 KDW       0.037200
     83 H16         -5.6860    -1.0010    -4.7160 h4         1 KDW       0.027100
     84 H17        -10.7100    -5.0850    -0.3430 hn         1 KDW       0.317500
     85 H18        -12.5160    -6.3340    -0.3940 hc         1 KDW       0.059533
     86 H19        -13.0020    -6.8680     1.2190 hc         1 KDW       0.059533
     87 H20        -13.8620    -5.5520     0.4380 hc         1 KDW       0.059533
     88 H21         -4.1370     5.4130     1.8680 ha         1 KDW       0.130500
     89 H22         -2.4180     7.0940     2.3810 ha         1 KDW       0.117500
     90 H23         -0.2040     6.9680     1.2920 ha         1 KDW       0.119000
     91 H24         -1.3290     2.1960    -0.6570 hc         1 KDW       0.044700
     92 H25         -2.1870     3.0940    -1.8970 hc         1 KDW       0.044700
     93 H26         -0.4590     3.3160    -1.6920 hc         1 KDW       0.044700
     94 H27          0.2320     6.9230    -1.6680 ha         1 KDW       0.119000
     95 H28          2.4580     6.9880    -2.7340 ha         1 KDW       0.117500
     96 H29          4.1510     5.3030    -2.1510 ha         1 KDW       0.130500
     97 H30          2.1110     3.0990     1.6430 hc         1 KDW       0.044700
     98 H31          0.3900     3.3280     1.3920 hc         1 KDW       0.044700
     99 H32          1.2760     2.1810     0.4030 hc         1 KDW       0.044700
    100 H33          3.4820     2.2410    -0.4610 h1         1 KDW       0.040950
    101 H34          4.1470     3.3660     0.7220 h1         1 KDW       0.040950
    102 H35          5.2490     1.4460     0.7190 ha         1 KDW       0.118000
    103 H36         10.3220     0.3470    -1.0980 h1         1 KDW       0.039950
    104 H37          9.8500    -0.0370     0.5450 h1         1 KDW       0.039950
    105 H38         10.6510    -2.3210     0.3560 h1         1 KDW       0.037200
    106 H39         11.2240    -1.9310    -1.2610 h1         1 KDW       0.037200
    107 H40          9.1320    -4.0700    -0.6510 h1         1 KDW       0.057950
    108 H41          9.8090    -3.7170    -2.2320 h1         1 KDW       0.057950
    109 H42         14.1420    -5.3230    -1.1130 hc         1 KDW       0.059533
    110 H43         12.9330    -6.2620    -0.2310 hc         1 KDW       0.059533
    111 H44         13.2890    -6.6240    -1.9250 hc         1 KDW       0.059533
    112 H45          9.1060     1.9300    -2.2960 ha         1 KDW       0.123000
    113 H46          6.3060     3.6490    -3.5280 hc         1 KDW       0.042367
    114 H47          7.1410     4.7460    -2.4450 hc         1 KDW       0.042367
    115 H48          8.0660     3.6700    -3.4830 hc         1 KDW       0.042367
    116 H49          5.2690    -0.7160     1.3820 h1         1 KDW       0.047700
    117 H50          5.9590     0.3630     2.6050 h1         1 KDW       0.047700
    118 H51          5.5400    -3.1120     1.5370 h4         1 KDW       0.027100
    119 H52          7.4320    -4.8530     4.7380 h4         1 KDW       0.035600
    120 H53          7.6170    -0.5860     4.2980 ha         1 KDW       0.140000
    121 H54         -8.9680     1.8990     2.4350 ha         1 KDW       0.123000
    122 H55         -6.9650     4.6990     2.5510 hc         1 KDW       0.042367
    123 H56         -7.8400     3.5890     3.5970 hc         1 KDW       0.042367
    124 H57         -6.0820     3.5400     3.5260 hc         1 KDW       0.042367
    125 H58          8.4310    -1.7690    -0.4520 hn         1 KDW       0.405500
    126 H60         11.0710    -5.1240     0.0040 hn         1 KDW       0.317500
@<TRIPOS>BOND
     1     1     3 1   
     2     1    17 1   
     3     1    69 1   
     4     2     9 3   
     5     3     4 1   
     6     3    70 1   
     7     3    71 1   
     8     4     5 ar  
     9     4    61 ar  
    10     5    14 ar  
    11     5    20 1   
    12     6     7 1   
    13     6    20 1   
    14     6    72 1   
    15     6    73 1   
    16     7    13 ar  
    17     7    18 ar  
    18     8    12 ar  
    19     8    19 ar  
    20     8    74 1   
    21     9    12 1   
    22    10    14 ar  
    23    10    21 1   
    24    10    60 ar  
    25    11    23 1   
    26    11    24 1   
    27    11    25 2   
    28    12    13 ar  
    29    13    75 1   
    30    14    76 1   
    31    15    21 1   
    32    15    26 1   
    33    15    77 1   
    34    15    78 1   
    35    16    17 1   
    36    16    23 1   
    37    16    79 1   
    38    16    80 1   
    39    17    81 1   
    40    17    82 1   
    41    18    19 ar  
    42    18    83 1   
    43    22    40 1   
    44    22    41 1   
    45    23    84 1   
    46    24    85 1   
    47    24    86 1   
    48    24    87 1   
    49    26    27 ar  
    50    26    31 ar  
    51    27    28 ar  
    52    27    88 1   
    53    28    29 ar  
    54    28    89 1   
    55    29    30 ar  
    56    29    90 1   
    57    30    31 ar  
    58    30    33 1   
    59    31    32 1   
    60    32    91 1   
    61    32    92 1   
    62    32    93 1   
    63    33    34 ar  
    64    33    38 ar  
    65    34    35 ar  
    66    34    94 1   
    67    35    36 ar  
    68    35    95 1   
    69    36    37 ar  
    70    36    96 1   
    71    37    38 ar  
    72    37    40 1   
    73    38    39 1   
    74    39    97 1   
    75    39    98 1   
    76    39    99 1   
    77    40   100 1   
    78    40   101 1   
    79    41    42 ar  
    80    41    51 ar  
    81    42    43 ar  
    82    42   102 1   
    83    43    44 ar  
    84    43    68 1   
    85    44    45 1   
    86    44    50 ar  
    87    45    63 1   
    88    45   103 1   
    89    45   104 1   
    90    46    47 1   
    91    46    63 1   
    92    46   105 1   
    93    46   106 1   
    94    47    64 1   
    95    47   107 1   
    96    47   108 1   
    97    48    49 1   
    98    48    64 1   
    99    48    67 2   
   100    49   109 1   
   101    49   110 1   
   102    49   111 1   
   103    50    51 ar  
   104    50   112 1   
   105    51    52 1   
   106    52   113 1   
   107    52   114 1   
   108    52   115 1   
   109    53    54 1   
   110    53    68 1   
   111    53   116 1   
   112    53   117 1   
   113    54    55 ar  
   114    54    58 ar  
   115    55    65 ar  
   116    55   118 1   
   117    56    57 ar  
   118    56    65 ar  
   119    56   119 1   
   120    57    58 ar  
   121    57    59 1   
   122    58   120 1   
   123    59    66 3   
   124    60    61 ar  
   125    60    62 1   
   126    61   121 1   
   127    62   122 1   
   128    62   123 1   
   129    62   124 1   
   130    63   125 1   
   131    64   126 1   
@<TRIPOS>SUBSTRUCTURE
     1 KDW         1 TEMP              0 ****  ****    0 ROOT
