@<TRIPOS>MOLECULE
KDX
   25    27     1     0     0
SMALL
abcg2


@<TRIPOS>ATOM
      1 N3          13.0690    35.3260   -13.6340 na         1 KDX      -0.187700
      2 C4          14.5380    36.5200   -14.8620 ca         1 KDX      -0.126800
      3 C5          13.8930    35.2700   -14.7190 ca         1 KDX      -0.004200
      4 C6          12.4650    37.0770   -11.9360 c          1 KDX       0.586200
      5 C10         15.4280    36.7130   -15.9310 ca         1 KDX       0.184100
      6 C15         15.6490    35.6710   -16.8070 ca         1 KDX      -0.170000
      7 C1          13.1550    36.5690   -13.0820 cc         1 KDX      -0.191300
      8 C2          14.0460    37.3460   -13.8030 cd         1 KDX       0.154400
      9 N7          14.3350    38.6410   -13.4930 nd         1 KDX      -0.568300
     10 N8          12.8290    38.3960   -11.7130 ns         1 KDX      -0.417400
     11 C9          13.7130    39.1040   -12.4650 cc         1 KDX       0.466800
     12 O11         11.6690    36.4830   -11.2270 o          1 KDX      -0.549000
     13 C12         14.1140    34.2140   -15.6040 ca         1 KDX      -0.151000
     14 O13         16.0420    37.9080   -16.1180 os         1 KDX      -0.353100
     15 C14         14.9910    34.4400   -16.6430 ca         1 KDX      -0.059000
     16 C16         17.1650    38.1410   -15.2780 c3         1 KDX       0.156900
     17 H1          12.4810    34.5790   -13.3020 hn         1 KDX       0.370000
     18 H2          16.3330    35.8100   -17.6340 ha         1 KDX       0.127000
     19 H3          12.3960    38.8630   -10.9270 hn         1 KDX       0.330500
     20 H4          13.8760    40.1240   -12.1430 h5         1 KDX       0.050800
     21 H5          13.6110    33.2640   -15.4850 ha         1 KDX       0.121000
     22 H6          15.1870    33.6470   -17.3530 ha         1 KDX       0.115000
     23 H7          17.5530    39.1250   -15.5300 h1         1 KDX       0.037700
     24 H8          16.8920    38.1340   -14.2210 h1         1 KDX       0.037700
     25 H9          17.9480    37.3970   -15.4490 h1         1 KDX       0.037700
@<TRIPOS>BOND
     1     1     3 1   
     2     1     7 1   
     3     1    17 1   
     4     2     3 ar  
     5     2     5 ar  
     6     2     8 1   
     7     3    13 ar  
     8     4     7 1   
     9     4    10 1   
    10     4    12 2   
    11     5     6 ar  
    12     5    14 1   
    13     6    15 ar  
    14     6    18 1   
    15     7     8 2   
    16     8     9 1   
    17     9    11 2   
    18    10    11 1   
    19    10    19 1   
    20    11    20 1   
    21    13    15 ar  
    22    13    21 1   
    23    14    16 1   
    24    15    22 1   
    25    16    23 1   
    26    16    24 1   
    27    16    25 1   
@<TRIPOS>SUBSTRUCTURE
     1 KDX         1 TEMP              0 ****  ****    0 ROOT
