@<TRIPOS>MOLECULE
KDX
   25    27     1     0     0
SMALL
No Charge or Current Charge


@<TRIPOS>ATOM
      1 N3          13.0560    35.2920   -13.6280 na         1 KDX      -0.187700
      2 C4          14.5240    36.4620   -14.8920 ca         1 KDX      -0.126800
      3 C5          13.8900    35.2530   -14.7400 ca         1 KDX      -0.004200
      4 C6          12.4510    37.1460   -11.8670 c          1 KDX       0.586200
      5 C10         15.4250    36.6950   -15.9450 ca         1 KDX       0.184100
      6 C15         15.6520    35.6480   -16.8620 ca         1 KDX      -0.170000
      7 C1          13.1210    36.5710   -13.0270 cc         1 KDX      -0.191300
      8 C2          14.0190    37.2740   -13.8100 cd         1 KDX       0.154400
      9 N7          14.3270    38.6070   -13.5400 nd         1 KDX      -0.568300
     10 N8          12.8180    38.4340   -11.6740 ns         1 KDX      -0.417400
     11 C9          13.7040    39.1180   -12.4730 cc         1 KDX       0.466800
     12 O11         11.6540    36.5650   -11.1460 o          1 KDX      -0.549000
     13 C12         14.1060    34.1950   -15.6310 ca         1 KDX      -0.151000
     14 O13         16.0760    37.8920   -16.1050 os         1 KDX      -0.353100
     15 C14         14.9980    34.4020   -16.7060 ca         1 KDX      -0.059000
     16 C16         17.1980    38.1900   -15.2600 c3         1 KDX       0.156900
     17 H1          12.4830    34.5190   -13.3030 hn         1 KDX       0.370000
     18 H2          16.3380    35.7990   -17.6910 ha         1 KDX       0.127000
     19 H3          12.3970    38.9080   -10.8880 hn         1 KDX       0.330500
     20 H4          13.8520    40.1400   -12.1470 h5         1 KDX       0.050800
     21 H5          13.5980    33.2410   -15.5040 ha         1 KDX       0.121000
     22 H6          15.1830    33.6000   -17.4180 ha         1 KDX       0.115000
     23 H7          17.5880    39.1910   -15.4810 h1         1 KDX       0.037700
     24 H8          16.9150    38.1570   -14.2000 h1         1 KDX       0.037700
     25 H9          18.0050    37.4630   -15.4210 h1         1 KDX       0.037700
@<TRIPOS>BOND
     1     1     3 1   
     2     1     7 1   
     3     1    17 1   
     4     2     3 ar  
     5     2     5 ar  
     6     2     8 1   
     7     3    13 ar  
     8     4     7 1   
     9     4    10 1   
    10     4    12 2   
    11     5     6 ar  
    12     5    14 1   
    13     6    15 ar  
    14     6    18 1   
    15     7     8 2   
    16     8     9 1   
    17     9    11 2   
    18    10    11 1   
    19    10    19 1   
    20    11    20 1   
    21    13    15 ar  
    22    13    21 1   
    23    14    16 1   
    24    15    22 1   
    25    16    23 1   
    26    16    24 1   
    27    16    25 1   
@<TRIPOS>SUBSTRUCTURE
     1 KDX         1 TEMP              0 ****  ****    0 ROOT
