@<TRIPOS>MOLECULE
KDY
   24    25     1     0     0
SMALL
bcc


@<TRIPOS>ATOM
      1 C1          -2.6780     0.2820    -0.5770 c3         1 KDY       0.148800
      2 C10          0.4720     0.3300     0.1880 ca         1 KDY      -0.096800
      3 C2          -1.9480    -0.2310     0.6650 c3         1 KDY      -0.031100
      4 C3          -0.5340    -0.6370     0.3680 ca         1 KDY      -0.029300
      5 C4          -0.1730    -1.9660     0.2270 ca         1 KDY      -0.155000
      6 C5           1.1420    -2.3530    -0.0840 ca         1 KDY      -0.108000
      7 C6           2.1420    -1.4190    -0.2650 ca         1 KDY      -0.148000
      8 C7           1.7880    -0.0760    -0.1250 ca         1 KDY      -0.048200
      9 C8           1.7690     2.1500    -0.0130 cc         1 KDY      -0.116100
     10 C9           0.4890     1.7590     0.2540 cd         1 KDY      -0.193200
     11 N1          -4.0380     0.6770    -0.2430 n8         1 KDY      -0.887800
     12 N2           2.5470     1.0520    -0.2420 na         1 KDY      -0.174400
     13 H1          -2.0850     1.0860    -1.0350 h1         1 KDY       0.032700
     14 H2          -2.7250    -0.5220    -1.3140 h1         1 KDY       0.032700
     15 H3          -1.9560     0.5520     1.4310 hc         1 KDY       0.053200
     16 H4          -2.5040    -1.0770     1.0750 hc         1 KDY       0.053200
     17 H5          -0.9260    -2.7340     0.3590 ha         1 KDY       0.129000
     18 H6           1.3730    -3.4050    -0.1810 ha         1 KDY       0.128000
     19 H7           3.1550    -1.7150    -0.5060 ha         1 KDY       0.130000
     20 H8           2.1920     3.1400    -0.0630 h4         1 KDY       0.160000
     21 H9          -0.3390     2.4170     0.4680 ha         1 KDY       0.152000
     22 H10         -4.0130     1.5120     0.3320 hn         1 KDY       0.335300
     23 H11         -4.5260     0.9470    -1.0870 hn         1 KDY       0.335300
     24 H13          3.5310     1.0770    -0.4500 hn         1 KDY       0.297700
@<TRIPOS>BOND
     1     1     3 1   
     2     1    11 1   
     3     1    13 1   
     4     1    14 1   
     5     2     4 ar  
     6     2     8 ar  
     7     2    10 1   
     8     3     4 1   
     9     3    15 1   
    10     3    16 1   
    11     4     5 ar  
    12     5     6 ar  
    13     5    17 1   
    14     6     7 ar  
    15     6    18 1   
    16     7     8 ar  
    17     7    19 1   
    18     8    12 1   
    19     9    10 2   
    20     9    12 1   
    21     9    20 1   
    22    10    21 1   
    23    11    22 1   
    24    11    23 1   
    25    12    24 1   
@<TRIPOS>SUBSTRUCTURE
     1 KDY         1 TEMP              0 ****  ****    0 ROOT
