@<TRIPOS>MOLECULE
KDY
   24    25     1     0     0
SMALL
No Charge or Current Charge


@<TRIPOS>ATOM
      1 C1          -2.7100     0.2630    -0.5770 c3         1 KDY       0.148800
      2 C10          0.5090     0.2960     0.1790 ca         1 KDY      -0.096800
      3 C2          -1.9500    -0.2100     0.6790 c3         1 KDY      -0.031100
      4 C3          -0.5240    -0.6400     0.3570 ca         1 KDY      -0.029300
      5 C4          -0.1820    -2.0050     0.2170 ca         1 KDY      -0.137000
      6 C5           1.1470    -2.3920    -0.0870 ca         1 KDY      -0.090000
      7 C6           2.1540    -1.4170    -0.2580 ca         1 KDY      -0.130000
      8 C7           1.7920    -0.0730    -0.1160 ca         1 KDY      -0.048200
      9 C8           1.8080     2.2200    -0.0120 cc         1 KDY      -0.166100
     10 C9           0.5320     1.7370     0.2410 cd         1 KDY      -0.243200
     11 N1          -4.1010     0.6590    -0.2690 n8         1 KDY      -0.998200
     12 N2           2.5830     1.0610    -0.2330 na         1 KDY      -0.224700
     13 H1          -2.1880     1.1210    -1.0230 h1         1 KDY       0.032700
     14 H2          -2.7320    -0.5490    -1.3170 h1         1 KDY       0.032700
     15 H3          -1.9360     0.5960     1.4230 hc         1 KDY       0.053200
     16 H4          -2.4980    -1.0420     1.1380 hc         1 KDY       0.053200
     17 H5          -0.9440    -2.7710     0.3420 ha         1 KDY       0.111000
     18 H6           1.3930    -3.4460    -0.1910 ha         1 KDY       0.110000
     19 H7           3.1770    -1.7040    -0.4920 ha         1 KDY       0.112000
     20 H8           2.2070     3.2310    -0.0510 h4         1 KDY       0.210000
     21 H9          -0.3280     2.3670     0.4570 ha         1 KDY       0.202000
     22 H10         -4.0860     1.4790     0.3500 hn         1 KDY       0.390500
     23 H11         -4.5450     1.0130    -1.1250 hn         1 KDY       0.390500
     24 H13          3.5760     1.0510    -0.4480 hn         1 KDY       0.348000
@<TRIPOS>BOND
     1     1     3 1   
     2     1    11 1   
     3     1    13 1   
     4     1    14 1   
     5     2     4 ar  
     6     2     8 ar  
     7     2    10 1   
     8     3     4 1   
     9     3    15 1   
    10     3    16 1   
    11     4     5 ar  
    12     5     6 ar  
    13     5    17 1   
    14     6     7 ar  
    15     6    18 1   
    16     7     8 ar  
    17     7    19 1   
    18     8    12 1   
    19     9    10 2   
    20     9    12 1   
    21     9    20 1   
    22    10    21 1   
    23    11    22 1   
    24    11    23 1   
    25    12    24 1   
@<TRIPOS>SUBSTRUCTURE
     1 KDY         1 TEMP              0 ****  ****    0 ROOT
