@<TRIPOS>MOLECULE
KE0
   23    23     1     0     0
SMALL
No Charge or Current Charge


@<TRIPOS>ATOM
      1 C1           4.9870   138.7760   353.1640 c3         1 KE0      -0.078400
      2 C2           5.4510   139.7800   352.0880 c3         1 KE0      -0.034100
      3 C3           5.0750   141.2130   352.4420 ca         1 KE0      -0.057300
      4 C4           5.9600   142.0180   353.1850 ca         1 KE0      -0.102500
      5 C5           5.6090   143.3380   353.5150 ca         1 KE0       0.128000
      6 C6           4.3730   143.8630   353.1090 ca         1 KE0      -0.100000
      7 C7           3.4860   143.0640   352.3700 ca         1 KE0       0.128000
      8 Cl           6.7220   144.3350   354.4430 cl         1 KE0      -0.195000
      9 C8           3.8340   141.7440   352.0380 ca         1 KE0      -0.102500
     10 C            5.3580   137.3180   352.8240 c3         1 KE0       0.149800
     11 N            4.8980   136.3840   353.8680 n8         1 KE0      -0.995200
     12 H1           5.4360   139.0510   354.1270 hc         1 KE0       0.052700
     13 H2           3.8990   138.8540   353.2820 hc         1 KE0       0.052700
     14 H3           5.0090   139.5030   351.1220 hc         1 KE0       0.050200
     15 H4           6.5370   139.6970   351.9610 hc         1 KE0       0.050200
     16 H5           6.9200   141.6230   353.5080 ha         1 KE0       0.132500
     17 H6           4.1030   144.8830   353.3650 ha         1 KE0       0.145000
     18 H7           3.1370   141.1340   351.4680 ha         1 KE0       0.132500
     19 H8           4.8960   137.0320   351.8690 h1         1 KE0       0.026200
     20 H9           6.4490   137.2260   352.7250 h1         1 KE0       0.026200
     21 H10          5.2160   135.4360   353.6310 hn         1 KE0       0.393500
     22 H11          5.3930   136.5910   354.7430 hn         1 KE0       0.393500
     23 Cl1          1.9350   143.7160   351.8610 cl         1 KE0      -0.195000
@<TRIPOS>BOND
     1     1     2 1   
     2     1    10 1   
     3     1    12 1   
     4     1    13 1   
     5     2     3 1   
     6     2    14 1   
     7     2    15 1   
     8     3     4 ar  
     9     3     9 ar  
    10     4     5 ar  
    11     4    16 1   
    12     5     6 ar  
    13     5     8 1   
    14     6     7 ar  
    15     6    17 1   
    16     7     9 ar  
    17     7    23 1   
    18     9    18 1   
    19    10    11 1   
    20    10    19 1   
    21    10    20 1   
    22    11    21 1   
    23    11    22 1   
@<TRIPOS>SUBSTRUCTURE
     1 KE0         1 TEMP              0 ****  ****    0 ROOT
