@<TRIPOS>MOLECULE
KE0
   23    23     1     0     0
SMALL
abcg2


@<TRIPOS>ATOM
      1 C1           4.9950   138.8080   353.1630 c3         1 KE0      -0.078400
      2 C2           5.5000   139.7860   352.1020 c3         1 KE0      -0.034100
      3 C3           5.1190   141.2010   352.4300 ca         1 KE0      -0.057300
      4 C4           5.9860   142.0210   353.1450 ca         1 KE0      -0.102500
      5 C5           5.5940   143.3060   353.4820 ca         1 KE0       0.128000
      6 C6           4.3540   143.8110   353.1260 ca         1 KE0      -0.100000
      7 C7           3.5050   142.9790   352.4140 ca         1 KE0       0.128000
      8 CL           6.6830   144.3160   354.3720 cl         1 KE0      -0.195000
      9 C8           3.8680   141.6900   352.0630 ca         1 KE0      -0.102500
     10 C            5.3560   137.3680   352.8380 c3         1 KE0       0.149800
     11 N            4.8400   136.4640   353.8550 n8         1 KE0      -0.995200
     12 H1           5.4160   139.0820   354.1360 hc         1 KE0       0.052700
     13 H2           3.9090   138.8940   353.2560 hc         1 KE0       0.052700
     14 H3           5.0840   139.5120   351.1300 hc         1 KE0       0.050200
     15 H4           6.5870   139.7070   352.0170 hc         1 KE0       0.050200
     16 H5           6.9620   141.6540   353.4350 ha         1 KE0       0.132500
     17 H6           4.0600   144.8170   353.3930 ha         1 KE0       0.145000
     18 H7           3.1840   141.0640   351.5040 ha         1 KE0       0.132500
     19 H8           4.9060   137.0970   351.8790 h1         1 KE0       0.026200
     20 H9           6.4450   137.2970   352.6970 h1         1 KE0       0.026200
     21 H10          5.0490   135.5080   353.5950 hn         1 KE0       0.393500
     22 H11          5.3340   136.6230   354.7240 hn         1 KE0       0.393500
     23 CL1          1.9470   143.5750   351.9500 cl         1 KE0      -0.195000
@<TRIPOS>BOND
     1     1     2 1   
     2     1    10 1   
     3     1    12 1   
     4     1    13 1   
     5     2     3 1   
     6     2    14 1   
     7     2    15 1   
     8     3     4 ar  
     9     3     9 ar  
    10     4     5 ar  
    11     4    16 1   
    12     5     6 ar  
    13     5     8 1   
    14     6     7 ar  
    15     6    17 1   
    16     7     9 ar  
    17     7    23 1   
    18     9    18 1   
    19    10    11 1   
    20    10    19 1   
    21    10    20 1   
    22    11    21 1   
    23    11    22 1   
@<TRIPOS>SUBSTRUCTURE
     1 KE0         1 TEMP              0 ****  ****    0 ROOT
