@<TRIPOS>MOLECULE
KE1
   52    53     1     0     0
SMALL
abcg2


@<TRIPOS>ATOM
      1 C1           1.1580     1.2550     0.7430 c5         1 KE1      -0.009500
      2 C2           0.7380    -0.2000     0.6390 c2         1 KE1      -0.173600
      3 C3           1.7270    -0.9580     1.1580 ce         1 KE1       0.081800
      4 C5           2.6850     1.1060     0.8630 c5         1 KE1       0.212500
      5 C7           2.9850    -0.0490    -1.3810 c          1 KE1       0.594900
      6 C11          0.6370     2.1980    -0.3260 c3         1 KE1      -0.085100
      7 C1A         -1.7900    -1.1140     1.5090 c5         1 KE1       0.021300
      8 C2A         -1.8300     0.0190     2.5270 c5         1 KE1       0.149800
      9 C31          1.8530    -2.4620     1.2980 c          1 KE1       0.718200
     10 C4A         -3.2530    -1.1920     1.0850 c5         1 KE1      -0.080400
     11 C5A         -3.7890     0.2610     1.2870 c5         1 KE1       0.080500
     12 C6           3.4190     1.0940    -0.5010 c3         1 KE1      -0.250700
     13 C61          4.9540     1.0140    -0.3170 c3         1 KE1       0.169300
     14 C62          5.6860     1.1100    -1.6470 c3         1 KE1      -0.130100
     15 C6A         -4.1310     0.9610    -0.0270 c          1 KE1       0.605100
     16 C8A         -5.5400     1.0710    -2.0020 c3         1 KE1       0.088800
     17 C9A         -6.0430    -0.6010    -0.3230 c3         1 KE1       0.088800
     18 N3A         -2.7630     1.0030     2.0070 n7         1 KE1      -0.842400
     19 N4           2.7890    -0.1700     1.5590 nu         1 KE1      -0.778200
     20 N7A         -5.1900     0.4980    -0.7190 n          1 KE1      -0.412800
     21 O31          3.0290    -2.8800     1.3350 o          1 KE1      -0.703500
     22 O32          0.8080    -3.1280     1.3450 o          1 KE1      -0.703500
     23 O62          5.4150     1.9890     0.5910 oh         1 KE1      -0.655000
     24 O6A         -3.4550     1.9050    -0.4180 o          1 KE1      -0.599100
     25 O7           2.4560     0.0700    -2.4620 o          1 KE1      -0.536100
     26 S21         -0.8110    -0.7000     0.0210 ss         1 KE1      -0.306600
     27 H1           0.8030     1.6370     1.7140 hc         1 KE1       0.040700
     28 H4           3.1120     1.9140     1.4570 h1         1 KE1       0.060700
     29 H5           3.2550    -1.0520    -1.0020 h4         1 KE1       0.020200
     30 H7          -0.4530     2.2290    -0.2930 hc         1 KE1       0.035367
     31 H8           1.0030     3.2130    -0.1650 hc         1 KE1       0.035367
     32 H9           0.9180     1.8910    -1.3320 hc         1 KE1       0.035367
     33 H10         -1.4060    -2.0470     1.9180 h1         1 KE1       0.122700
     34 H11         -2.2030    -0.3860     3.4750 h1         1 KE1       0.056200
     35 H12         -0.8570     0.4660     2.7330 h1         1 KE1       0.056200
     36 H13         -3.3870    -1.5680     0.0680 hc         1 KE1       0.049200
     37 H14         -3.7840    -1.8800     1.7450 hc         1 KE1       0.049200
     38 H15         -4.6960     0.2190     1.8990 h1         1 KE1       0.058700
     39 H16          3.1890     2.0300    -1.0200 hc         1 KE1       0.061700
     40 H17          5.2040     0.0520     0.1440 h1         1 KE1       0.084700
     41 H18          5.4220     2.0300    -2.1760 hc         1 KE1       0.039367
     42 H19          6.7640     1.1050    -1.4860 hc         1 KE1       0.039367
     43 H20          5.4540     0.2720    -2.3040 hc         1 KE1       0.039367
     44 H21         -5.4610     0.3170    -2.7880 h1         1 KE1       0.036200
     45 H22         -6.5700     1.4320    -1.9830 h1         1 KE1       0.036200
     46 H23         -4.8850     1.8990    -2.2470 h1         1 KE1       0.036200
     47 H24         -7.0860    -0.2790    -0.3350 h1         1 KE1       0.036200
     48 H25         -5.9430    -1.4370    -1.0190 h1         1 KE1       0.036200
     49 H26         -5.8240    -0.9670     0.6740 h1         1 KE1       0.036200
     50 H27         -2.2870     1.5980     1.3380 hn         1 KE1       0.440000
     51 H29          3.6840    -0.6370     1.5960 hn         1 KE1       0.481000
     52 H32          5.2820     2.8590     0.1970 ho         1 KE1       0.431000
@<TRIPOS>BOND
     1     1     2 1   
     2     1     4 1   
     3     1     6 1   
     4     1    27 1   
     5     2     3 2   
     6     2    26 1   
     7     3     9 1   
     8     3    19 1   
     9     4    12 1   
    10     4    19 1   
    11     4    28 1   
    12     5    12 1   
    13     5    25 2   
    14     5    29 1   
    15     6    30 1   
    16     6    31 1   
    17     6    32 1   
    18     7     8 1   
    19     7    10 1   
    20     7    26 1   
    21     7    33 1   
    22     8    18 1   
    23     8    34 1   
    24     8    35 1   
    25     9    21 1   
    26     9    22 1   
    27    10    11 1   
    28    10    36 1   
    29    10    37 1   
    30    11    15 1   
    31    11    18 1   
    32    11    38 1   
    33    12    13 1   
    34    12    39 1   
    35    13    14 1   
    36    13    23 1   
    37    13    40 1   
    38    14    41 1   
    39    14    42 1   
    40    14    43 1   
    41    15    20 1   
    42    15    24 2   
    43    16    20 1   
    44    16    44 1   
    45    16    45 1   
    46    16    46 1   
    47    17    20 1   
    48    17    47 1   
    49    17    48 1   
    50    17    49 1   
    51    18    50 1   
    52    19    51 1   
    53    23    52 1   
@<TRIPOS>SUBSTRUCTURE
     1 KE1         1 TEMP              0 ****  ****    0 ROOT
