@<TRIPOS>MOLECULE
KE1
   52    53     1     0     0
SMALL
No Charge or Current Charge


@<TRIPOS>ATOM
      1 C1           1.4340     1.4030     0.8260 c5         1 KE1      -0.009500
      2 C2           0.7270     0.0990     0.5050 c2         1 KE1      -0.173600
      3 C3           1.5810    -0.8850     0.8630 ce         1 KE1       0.081800
      4 C5           2.9570     1.0070     0.9290 c5         1 KE1       0.212500
      5 C7           3.2420     0.2650    -1.5140 c          1 KE1       0.594900
      6 C11          1.0860     2.5970    -0.0950 c3         1 KE1      -0.085100
      7 C1A         -1.7270    -0.6990     1.2800 c5         1 KE1       0.021300
      8 C2A         -1.8990     0.4100     2.3470 c5         1 KE1       0.149800
      9 C31          1.4250    -2.4150     0.6660 c          1 KE1       0.718200
     10 C4A         -3.2120    -0.9920     0.9320 c5         1 KE1      -0.080400
     11 C5A         -3.9390     0.3840     1.1620 c5         1 KE1       0.080500
     12 C6           3.8200     1.1080    -0.3680 c3         1 KE1      -0.250700
     13 C61          5.3150     0.7600    -0.1460 c3         1 KE1       0.169300
     14 C62          6.1720     0.8450    -1.4280 c3         1 KE1      -0.130100
     15 C6A         -4.6070     0.8850    -0.1900 c          1 KE1       0.605100
     16 C8A         -6.3070     0.3450    -1.9490 c3         1 KE1       0.088800
     17 C9A         -6.4460    -0.8190     0.2810 c3         1 KE1       0.088800
     18 N3A         -2.8870     1.3100     1.7150 n7         1 KE1      -0.842400
     19 N4           2.8180    -0.4050     1.3750 nu         1 KE1      -0.778200
     20 N7A         -5.6940     0.0780    -0.6300 n          1 KE1      -0.412800
     21 O31          2.3590    -3.1320     1.0140 o          1 KE1      -0.703500
     22 O32          0.4190    -2.8790     0.1450 o          1 KE1      -0.703500
     23 O62          5.8680     1.6710     0.8060 oh         1 KE1      -0.655000
     24 O6A         -4.2170     1.8460    -0.8470 o          1 KE1      -0.599100
     25 O7           2.8640     0.7450    -2.5780 o          1 KE1      -0.536100
     26 S21         -0.9020     0.0110    -0.2500 ss         1 KE1      -0.306600
     27 H1           1.1060     1.7200     1.8230 hc         1 KE1       0.040700
     28 H4           3.4330     1.6270     1.7020 h1         1 KE1       0.060700
     29 H5           3.2100    -0.8340    -1.3420 h4         1 KE1       0.020200
     30 H7           0.0340     2.8850     0.0180 hc         1 KE1       0.035367
     31 H8           1.6950     3.4740     0.1530 hc         1 KE1       0.035367
     32 H9           1.2480     2.3600    -1.1520 hc         1 KE1       0.035367
     33 H10         -1.1910    -1.5810     1.6540 h1         1 KE1       0.122700
     34 H11         -2.2910    -0.0050     3.2870 h1         1 KE1       0.056200
     35 H12         -0.9580     0.9280     2.5760 h1         1 KE1       0.056200
     36 H13         -3.3280    -1.3850    -0.0850 hc         1 KE1       0.049200
     37 H14         -3.6200    -1.7520     1.6090 hc         1 KE1       0.049200
     38 H15         -4.7300     0.2630     1.9130 h1         1 KE1       0.058700
     39 H16          3.7880     2.1490    -0.7110 hc         1 KE1       0.061700
     40 H17          5.3880    -0.2690     0.2370 h1         1 KE1       0.084700
     41 H18          6.0840     1.8310    -1.8990 hc         1 KE1       0.039367
     42 H19          7.2300     0.6690    -1.1950 hc         1 KE1       0.039367
     43 H20          5.8680     0.0860    -2.1580 hc         1 KE1       0.039367
     44 H21         -5.5240     0.5090    -2.7010 h1         1 KE1       0.036200
     45 H22         -6.9190    -0.5090    -2.2680 h1         1 KE1       0.036200
     46 H23         -6.9410     1.2390    -1.8870 h1         1 KE1       0.036200
     47 H24         -7.3680    -1.1700    -0.2000 h1         1 KE1       0.036200
     48 H25         -5.8380    -1.6940     0.5390 h1         1 KE1       0.036200
     49 H26         -6.7230    -0.2800     1.1960 h1         1 KE1       0.036200
     50 H27         -2.4130     1.7260     0.9010 hn         1 KE1       0.440000
     51 H29          3.5950    -1.0680     1.4220 hn         1 KE1       0.481000
     52 H32          5.9110     2.5480     0.3690 ho         1 KE1       0.431000
@<TRIPOS>BOND
     1     1     2 1   
     2     1     4 1   
     3     1     6 1   
     4     1    27 1   
     5     2     3 2   
     6     2    26 1   
     7     3     9 1   
     8     3    19 1   
     9     4    12 1   
    10     4    19 1   
    11     4    28 1   
    12     5    12 1   
    13     5    25 2   
    14     5    29 1   
    15     6    30 1   
    16     6    31 1   
    17     6    32 1   
    18     7     8 1   
    19     7    10 1   
    20     7    26 1   
    21     7    33 1   
    22     8    18 1   
    23     8    34 1   
    24     8    35 1   
    25     9    21 1   
    26     9    22 1   
    27    10    11 1   
    28    10    36 1   
    29    10    37 1   
    30    11    15 1   
    31    11    18 1   
    32    11    38 1   
    33    12    13 1   
    34    12    39 1   
    35    13    14 1   
    36    13    23 1   
    37    13    40 1   
    38    14    41 1   
    39    14    42 1   
    40    14    43 1   
    41    15    20 1   
    42    15    24 2   
    43    16    20 1   
    44    16    44 1   
    45    16    45 1   
    46    16    46 1   
    47    17    20 1   
    48    17    47 1   
    49    17    48 1   
    50    17    49 1   
    51    18    50 1   
    52    19    51 1   
    53    23    52 1   
@<TRIPOS>SUBSTRUCTURE
     1 KE1         1 TEMP              0 ****  ****    0 ROOT
