@<TRIPOS>MOLECULE
KE2
   45    47     1     0     0
SMALL
bcc


@<TRIPOS>ATOM
      1 C01        -11.3920    15.1490     4.5170 c3         1 KE2      -0.050800
      2 C02        -11.7690    16.5200     4.0340 ca         1 KE2      -0.167300
      3 C03        -10.7990    17.4440     3.6580 ca         1 KE2      -0.081000
      4 C04        -11.1140    18.7230     3.2100 ca         1 KE2      -0.131300
      5 C05        -10.0410    19.6800     2.7770 c3         1 KE2      -0.039100
      6 C06         -9.8540    19.6820     1.2490 c6         1 KE2       0.041700
      7 C08         -8.3810    17.9390     0.2350 c          1 KE2       0.710500
      8 C10         -7.2870    18.9640     0.0380 c6         1 KE2       0.038700
      9 C11         -6.0720    18.6420     0.9290 c3         1 KE2      -0.036100
     10 C12         -6.3730    18.6800     2.3990 ca         1 KE2      -0.133300
     11 C13         -6.2890    19.8640     3.1260 ca         1 KE2      -0.081000
     12 C14         -6.5870    19.9060     4.4810 ca         1 KE2      -0.197500
     13 C15         -6.9790    18.7460     5.1430 ca         1 KE2       0.143100
     14 C17         -7.0620    17.5500     4.4330 ca         1 KE2      -0.197500
     15 C18         -6.7630    17.5280     3.0810 ca         1 KE2      -0.081000
     16 C20         -8.8470    20.7370     0.8440 c          1 KE2       0.709500
     17 C22        -12.4590    19.0730     3.1360 ca         1 KE2      -0.091000
     18 C23        -13.4490    18.1780     3.5040 ca         1 KE2      -0.163000
     19 C24        -13.1110    16.9050     3.9520 ca         1 KE2       0.146100
     20 N07         -9.5380    18.3650     0.7470 ns         1 KE2      -0.558900
     21 N19         -7.7380    20.3220     0.2230 ns         1 KE2      -0.563900
     22 O09         -8.1800    16.7750    -0.0830 o          1 KE2      -0.642500
     23 O16         -7.2770    18.7220     6.4580 oh         1 KE2      -0.492100
     24 O21         -9.0840    21.9140     1.0710 o          1 KE2      -0.635500
     25 O25        -14.1250    16.0810     4.2970 oh         1 KE2      -0.499100
     26 H1         -11.7350    14.9630     5.5380 hc         1 KE2       0.043700
     27 H2         -11.8080    14.3610     3.8840 hc         1 KE2       0.043700
     28 H3         -10.3110    15.0220     4.5160 hc         1 KE2       0.043700
     29 H4          -9.7560    17.1530     3.7240 ha         1 KE2       0.136000
     30 H5          -9.0910    19.4230     3.2490 hc         1 KE2       0.071200
     31 H6         -10.2950    20.6960     3.0860 hc         1 KE2       0.071200
     32 H7         -10.8000    19.9910     0.7930 h1         1 KE2       0.081700
     33 H8          -6.9640    18.8600    -1.0020 h1         1 KE2       0.082700
     34 H9          -5.6950    17.6590     0.6400 hc         1 KE2       0.064200
     35 H10         -5.2870    19.3610     0.6820 hc         1 KE2       0.064200
     36 H11         -5.9730    20.7770     2.6350 ha         1 KE2       0.138000
     37 H12         -6.5070    20.8430     5.0200 ha         1 KE2       0.141500
     38 H13         -7.3530    16.6400     4.9440 ha         1 KE2       0.141500
     39 H14         -6.8290    16.5880     2.5460 ha         1 KE2       0.138000
     40 H15        -12.7420    20.0610     2.7910 ha         1 KE2       0.135000
     41 H16        -14.4930    18.4640     3.4480 ha         1 KE2       0.148000
     42 H17        -10.2590    17.6640     0.8600 hn         1 KE2       0.330500
     43 H18         -7.0840    21.0450    -0.0480 hn         1 KE2       0.320500
     44 H19         -7.1760    19.6010     6.8390 ho         1 KE2       0.428000
     45 H20        -13.7930    15.2340     4.6150 ho         1 KE2       0.429000
@<TRIPOS>BOND
     1     1     2 1   
     2     1    26 1   
     3     1    27 1   
     4     1    28 1   
     5     2     3 ar  
     6     2    19 ar  
     7     3     4 ar  
     8     3    29 1   
     9     4     5 1   
    10     4    17 ar  
    11     5     6 1   
    12     5    30 1   
    13     5    31 1   
    14     6    16 1   
    15     6    20 1   
    16     6    32 1   
    17     7     8 1   
    18     7    20 1   
    19     7    22 2   
    20     8     9 1   
    21     8    21 1   
    22     8    33 1   
    23     9    10 1   
    24     9    34 1   
    25     9    35 1   
    26    10    11 ar  
    27    10    15 ar  
    28    11    12 ar  
    29    11    36 1   
    30    12    13 ar  
    31    12    37 1   
    32    13    14 ar  
    33    13    23 1   
    34    14    15 ar  
    35    14    38 1   
    36    15    39 1   
    37    16    21 1   
    38    16    24 2   
    39    17    18 ar  
    40    17    40 1   
    41    18    19 ar  
    42    18    41 1   
    43    19    25 1   
    44    20    42 1   
    45    21    43 1   
    46    23    44 1   
    47    25    45 1   
@<TRIPOS>SUBSTRUCTURE
     1 KE2         1 TEMP              0 ****  ****    0 ROOT
