@<TRIPOS>MOLECULE
KE2
   45    47     1     0     0
SMALL
No Charge or Current Charge


@<TRIPOS>ATOM
      1 C01        -11.3900    15.0370     4.4160 c3         1 KE2      -0.050800
      2 C02        -11.7980    16.4420     3.9780 ca         1 KE2      -0.167300
      3 C03        -10.8010    17.3650     3.6010 ca         1 KE2      -0.063000
      4 C04        -11.1440    18.6690     3.1910 ca         1 KE2      -0.131300
      5 C05        -10.0580    19.6560     2.7760 c3         1 KE2      -0.039100
      6 C06         -9.8850    19.7670     1.2360 c6         1 KE2       0.041700
      7 C08         -8.4700    17.9250     0.2000 c          1 KE2       0.568000
      8 C10         -7.2930    18.9320     0.0270 c6         1 KE2       0.038700
      9 C11         -6.1060    18.5340     0.9530 c3         1 KE2      -0.036100
     10 C12         -6.3940    18.6620     2.4460 ca         1 KE2      -0.133300
     11 C13         -6.2070    19.8930     3.1060 ca         1 KE2      -0.063000
     12 C14         -6.4680    20.0060     4.4830 ca         1 KE2      -0.179500
     13 C15         -6.9110    18.8880     5.2080 ca         1 KE2       0.143100
     14 C17         -7.0910    17.6590     4.5580 ca         1 KE2      -0.179500
     15 C18         -6.8350    17.5430     3.1810 ca         1 KE2      -0.063000
     16 C20         -8.7750    20.8070     0.9000 c          1 KE2       0.567000
     17 C22        -12.4960    19.0520     3.1560 ca         1 KE2      -0.073000
     18 C23        -13.4950    18.1380     3.5310 ca         1 KE2      -0.145000
     19 C24        -13.1510    16.8410     3.9410 ca         1 KE2       0.146100
     20 N07         -9.6750    18.4270     0.6320 ns         1 KE2      -0.491900
     21 N19         -7.6690    20.3560     0.2150 ns         1 KE2      -0.496900
     22 O09         -8.3700    16.7430    -0.0940 o          1 KE2      -0.567000
     23 O16         -7.1650    18.9890     6.5420 oh         1 KE2      -0.531100
     24 O21         -8.8900    21.9940     1.1620 o          1 KE2      -0.560000
     25 O25        -14.1440    15.9770     4.2980 oh         1 KE2      -0.538100
     26 H1         -11.7120    14.8320     5.4440 hc         1 KE2       0.043700
     27 H2         -11.8280    14.2740     3.7610 hc         1 KE2       0.043700
     28 H3         -10.3020    14.9020     4.3860 hc         1 KE2       0.043700
     29 H4          -9.7560    17.0680     3.6210 ha         1 KE2       0.118000
     30 H5          -9.1040    19.3680     3.2320 hc         1 KE2       0.071200
     31 H6         -10.2890    20.6450     3.1920 hc         1 KE2       0.071200
     32 H7         -10.8130    20.1770     0.8130 h1         1 KE2       0.081700
     33 H8          -6.9650    18.8150    -1.0160 h1         1 KE2       0.082700
     34 H9          -5.7950    17.5060     0.7240 hc         1 KE2       0.064200
     35 H10         -5.2360    19.1520     0.7000 hc         1 KE2       0.064200
     36 H11         -5.8610    20.7640     2.5520 ha         1 KE2       0.120000
     37 H12         -6.3230    20.9630     4.9790 ha         1 KE2       0.123500
     38 H13         -7.4320    16.7930     5.1210 ha         1 KE2       0.123500
     39 H14         -6.9790    16.5850     2.6860 ha         1 KE2       0.120000
     40 H15        -12.7750    20.0550     2.8390 ha         1 KE2       0.117000
     41 H16        -14.5400    18.4380     3.5040 ha         1 KE2       0.130000
     42 H17        -10.4270    17.7510     0.7020 hn         1 KE2       0.330500
     43 H18         -6.9970    21.0690    -0.0440 hn         1 KE2       0.320500
     44 H19         -6.9780    19.9100     6.8240 ho         1 KE2       0.467000
     45 H20        -13.7290    15.1270     4.5530 ho         1 KE2       0.468000
@<TRIPOS>BOND
     1     1     2 1   
     2     1    26 1   
     3     1    27 1   
     4     1    28 1   
     5     2     3 ar  
     6     2    19 ar  
     7     3     4 ar  
     8     3    29 1   
     9     4     5 1   
    10     4    17 ar  
    11     5     6 1   
    12     5    30 1   
    13     5    31 1   
    14     6    16 1   
    15     6    20 1   
    16     6    32 1   
    17     7     8 1   
    18     7    20 1   
    19     7    22 2   
    20     8     9 1   
    21     8    21 1   
    22     8    33 1   
    23     9    10 1   
    24     9    34 1   
    25     9    35 1   
    26    10    11 ar  
    27    10    15 ar  
    28    11    12 ar  
    29    11    36 1   
    30    12    13 ar  
    31    12    37 1   
    32    13    14 ar  
    33    13    23 1   
    34    14    15 ar  
    35    14    38 1   
    36    15    39 1   
    37    16    21 1   
    38    16    24 2   
    39    17    18 ar  
    40    17    40 1   
    41    18    19 ar  
    42    18    41 1   
    43    19    25 1   
    44    20    42 1   
    45    21    43 1   
    46    23    44 1   
    47    25    45 1   
@<TRIPOS>SUBSTRUCTURE
     1 KE2         1 TEMP              0 ****  ****    0 ROOT
