@<TRIPOS>MOLECULE
KE5
   45    47     1     0     0
SMALL
No Charge or Current Charge


@<TRIPOS>ATOM
      1 CAB         -6.0220    18.8390     5.2420 c6         1 KE5       0.038700
      2 CAX        -11.0210    14.9580     3.3420 c3         1 KE5      -0.055800
      3 CA          -6.7100    16.7480     3.9680 c          1 KE5       0.567000
      4 CB          -7.4430    18.9170     5.8760 c          1 KE5       0.568000
      5 NB          -5.7530    17.5880     4.4880 ns         1 KE5      -0.496900
      6 OB          -7.7600    19.7890     6.6710 o          1 KE5      -0.565000
      7 CD1        -11.0360    18.7630     3.9690 ca         1 KE5      -0.071000
      8 CD2        -11.4670    16.3760     3.6880 ca         1 KE5      -0.024300
      9 CD3         -7.8250    20.9550     3.1530 ca         1 KE5      -0.063500
     10 CE1        -12.3760    18.9670     4.3310 ca         1 KE5      -0.149000
     11 CE2        -12.8110    16.5960     4.0520 ca         1 KE5      -0.209000
     12 CE3         -8.6340    21.0540     2.0060 ca         1 KE5      -0.180000
     13 CAA         -8.1750    16.9340     4.4620 c6         1 KE5       0.041700
     14 CBA         -9.0950    17.3030     3.2620 c3         1 KE5      -0.039100
     15 CBB         -5.7570    20.0980     4.3630 c3         1 KE5      -0.035100
     16 CD4         -6.2600    19.5530     1.9250 ca         1 KE5      -0.063500
     17 CE4         -7.0720    19.6520     0.7820 ca         1 KE5      -0.180000
     18 CGA        -10.5680    17.4730     3.6460 ca         1 KE5      -0.129300
     19 CGB         -6.6350    20.2000     3.1190 ca         1 KE5      -0.134300
     20 CZA        -13.2620    17.8850     4.3720 ca         1 KE5       0.146100
     21 CZB         -8.2570    20.4000     0.8230 ca         1 KE5       0.143100
     22 NA          -8.3300    17.9120     5.5680 ns         1 KE5      -0.492900
     23 OA          -6.3870    15.8540     3.2010 o          1 KE5      -0.561000
     24 OHA        -14.5620    18.0870     4.7240 oh         1 KE5      -0.532100
     25 OHB         -9.0370    20.4900    -0.2910 oh         1 KE5      -0.530100
     26 H1          -5.3250    18.8660     6.0920 h1         1 KE5       0.081700
     27 H2         -10.1780    14.6400     3.9650 hc         1 KE5       0.046700
     28 H3         -11.8260    14.2290     3.4950 hc         1 KE5       0.046700
     29 H4         -10.7150    14.8860     2.2920 hc         1 KE5       0.046700
     30 H5          -4.8010    17.3990     4.1950 hn         1 KE5       0.320500
     31 H7          -8.1250    21.4630     4.0670 ha         1 KE5       0.120500
     32 H8         -12.7270    19.9660     4.5800 ha         1 KE5       0.130000
     33 H9         -13.5050    15.7590     4.0840 ha         1 KE5       0.113000
     34 H10         -9.5500    21.6380     2.0470 ha         1 KE5       0.124500
     35 H11         -8.4810    15.9530     4.8490 h1         1 KE5       0.080700
     36 H12         -8.9920    16.5520     2.4710 hc         1 KE5       0.071700
     37 H13         -8.7330    18.2300     2.8070 hc         1 KE5       0.071700
     38 H14         -4.7030    20.1030     4.0600 hc         1 KE5       0.064700
     39 H15         -5.8770    21.0010     4.9750 hc         1 KE5       0.064700
     40 H16         -5.3410    18.9720     1.8820 ha         1 KE5       0.120500
     41 H17         -6.7810    19.1480    -0.1360 ha         1 KE5       0.124500
     42 H18         -9.2310    17.9720     6.0270 hn         1 KE5       0.330500
     43 H19        -15.0260    17.2230     4.6960 ho         1 KE5       0.465000
     44 H20         -9.8130    21.0520    -0.0810 ho         1 KE5       0.466000
     45 H6         -10.3570    19.6130     3.9450 ha         1 KE5       0.118000
@<TRIPOS>BOND
     1     1     4 1   
     2     1     5 1   
     3     1    15 1   
     4     1    26 1   
     5     2     8 1   
     6     2    27 1   
     7     2    28 1   
     8     2    29 1   
     9     3     5 1   
    10     3    13 1   
    11     3    23 2   
    12     4     6 2   
    13     4    22 1   
    14     5    30 1   
    15     7    10 ar  
    16     7    18 ar  
    17     7    45 1   
    18     8    11 ar  
    19     8    18 ar  
    20     9    12 ar  
    21     9    19 ar  
    22     9    31 1   
    23    10    20 ar  
    24    10    32 1   
    25    11    20 ar  
    26    11    33 1   
    27    12    21 ar  
    28    12    34 1   
    29    13    14 1   
    30    13    22 1   
    31    13    35 1   
    32    14    18 1   
    33    14    36 1   
    34    14    37 1   
    35    15    19 1   
    36    15    38 1   
    37    15    39 1   
    38    16    17 ar  
    39    16    19 ar  
    40    16    40 1   
    41    17    21 ar  
    42    17    41 1   
    43    20    24 1   
    44    21    25 1   
    45    22    42 1   
    46    24    43 1   
    47    25    44 1   
@<TRIPOS>SUBSTRUCTURE
     1 KE5         1 TEMP              0 ****  ****    0 ROOT
