@<TRIPOS>MOLECULE
KE5
   45    47     1     0     0
SMALL
bcc


@<TRIPOS>ATOM
      1 CAB         -6.0560    18.7580     5.1890 c6         1 KE5       0.038700
      2 CAX        -10.8980    14.9190     3.6490 c3         1 KE5      -0.055800
      3 CA          -6.7950    16.7200     3.9520 c          1 KE5       0.709500
      4 CB          -7.4440    18.8790     5.7780 c          1 KE5       0.710500
      5 NB          -5.8590    17.5410     4.4380 ns         1 KE5      -0.563900
      6 OB          -7.6830    19.7720     6.5780 o          1 KE5      -0.640500
      7 CD1        -11.0850    18.7120     3.6610 ca         1 KE5      -0.089000
      8 CD2        -11.3940    16.3330     3.7530 ca         1 KE5      -0.024300
      9 CD3         -7.7430    21.0210     3.2560 ca         1 KE5      -0.081500
     10 CE1        -12.4030    18.9320     4.0250 ca         1 KE5      -0.167000
     11 CE2        -12.7220    16.5530     4.1100 ca         1 KE5      -0.227000
     12 CE3         -8.5880    21.2040     2.1710 ca         1 KE5      -0.198000
     13 CAA         -8.2250    16.9620     4.3800 c6         1 KE5       0.041700
     14 CBA         -9.1050    17.2710     3.1550 c3         1 KE5      -0.039100
     15 CBB         -5.7140    20.0060     4.3540 c3         1 KE5      -0.035100
     16 CD4         -6.3610    19.5800     1.9520 ca         1 KE5      -0.081500
     17 CE4         -7.1970    19.7470     0.8600 ca         1 KE5      -0.198000
     18 CGA        -10.5550    17.4310     3.5190 ca         1 KE5      -0.129300
     19 CGB         -6.6160    20.2080     3.1710 ca         1 KE5      -0.134300
     20 CZA        -13.2320    17.8390     4.2540 ca         1 KE5       0.146100
     21 CZB         -8.3210    20.5640     0.9640 ca         1 KE5       0.143100
     22 NA          -8.3540    17.9790     5.3980 ns         1 KE5      -0.559900
     23 OA          -6.5380    15.7810     3.2130 o          1 KE5      -0.636500
     24 OHA        -14.5120    18.0770     4.6050 oh         1 KE5      -0.493100
     25 OHB         -9.1020    20.7050    -0.1260 oh         1 KE5      -0.491100
     26 H1          -5.3700    18.7380     6.0410 h1         1 KE5       0.081700
     27 H2         -10.3980    14.6050     4.5680 hc         1 KE5       0.046700
     28 H3         -11.7200    14.2250     3.4820 hc         1 KE5       0.046700
     29 H4         -10.1820    14.7880     2.8370 hc         1 KE5       0.046700
     30 H5          -4.9070    17.3410     4.1610 hn         1 KE5       0.320500
     31 H7          -7.9680    21.5320     4.1840 ha         1 KE5       0.138500
     32 H8         -12.7860    19.9390     4.1280 ha         1 KE5       0.148000
     33 H9         -13.3710    15.6980     4.2770 ha         1 KE5       0.131000
     34 H10         -9.4500    21.8570     2.2650 ha         1 KE5       0.142500
     35 H11         -8.5550    16.0140     4.8160 h1         1 KE5       0.080700
     36 H12         -8.9670    16.4730     2.4250 hc         1 KE5       0.071700
     37 H13         -8.7400    18.1900     2.6930 hc         1 KE5       0.071700
     38 H14         -4.6760    19.9090     4.0280 hc         1 KE5       0.064700
     39 H15         -5.7490    20.8720     5.0160 hc         1 KE5       0.064700
     40 H16         -5.4860    18.9490     1.8450 ha         1 KE5       0.138500
     41 H17         -6.9790    19.2500    -0.0770 ha         1 KE5       0.142500
     42 H18         -9.2730    18.0780     5.8090 hn         1 KE5       0.330500
     43 H19        -14.9800    17.2480     4.7530 ho         1 KE5       0.426000
     44 H20         -9.8420    21.2930     0.0650 ho         1 KE5       0.427000
     45 H6         -10.4430    19.5650     3.4760 ha         1 KE5       0.136000
@<TRIPOS>BOND
     1     1     4 1   
     2     1     5 1   
     3     1    15 1   
     4     1    26 1   
     5     2     8 1   
     6     2    27 1   
     7     2    28 1   
     8     2    29 1   
     9     3     5 1   
    10     3    13 1   
    11     3    23 2   
    12     4     6 2   
    13     4    22 1   
    14     5    30 1   
    15     7    10 ar  
    16     7    18 ar  
    17     7    45 1   
    18     8    11 ar  
    19     8    18 ar  
    20     9    12 ar  
    21     9    19 ar  
    22     9    31 1   
    23    10    20 ar  
    24    10    32 1   
    25    11    20 ar  
    26    11    33 1   
    27    12    21 ar  
    28    12    34 1   
    29    13    14 1   
    30    13    22 1   
    31    13    35 1   
    32    14    18 1   
    33    14    36 1   
    34    14    37 1   
    35    15    19 1   
    36    15    38 1   
    37    15    39 1   
    38    16    17 ar  
    39    16    19 ar  
    40    16    40 1   
    41    17    21 ar  
    42    17    41 1   
    43    20    24 1   
    44    21    25 1   
    45    22    42 1   
    46    24    43 1   
    47    25    44 1   
@<TRIPOS>SUBSTRUCTURE
     1 KE5         1 TEMP              0 ****  ****    0 ROOT
