@<TRIPOS>MOLECULE
KE6
   44    46     1     0     0
SMALL
No Charge or Current Charge


@<TRIPOS>ATOM
      1 C5          11.7440    37.7850   -12.6520 cc         1 KE6       0.377900
      2 C7          10.9600    36.7370   -12.1460 cc         1 KE6      -0.225000
      3 C10         10.0820    37.2880   -11.2640 cd         1 KE6      -0.154000
      4 C15         15.4860    33.3240   -15.9820 ca         1 KE6       0.214000
      5 C20         16.4240    37.6450   -16.9690 ca         1 KE6      -0.097000
      6 C21         14.7740    32.1100   -16.0960 ca         1 KE6       0.057900
      7 C22         16.8960    33.2350   -16.0720 ca         1 KE6       0.057900
      8 C24          8.9740    40.7310   -11.3850 c3         1 KE6      -0.103100
      9 C1          14.4220    36.9400   -15.1950 ca         1 KE6       0.218500
     10 N2          11.4270    38.9570   -12.1570 nd         1 KE6      -0.573800
     11 C3          13.2720    36.6030   -14.2370 c          1 KE6       0.528600
     12 N4          10.3840    38.6540   -11.2840 na         1 KE6       0.120800
     13 N6          12.7590    37.6960   -13.5700 ns         1 KE6      -0.438400
     14 N8          14.7420    38.2690   -15.3510 nb         1 KE6      -0.654000
     15 C9          15.1130    35.8990   -15.9010 ca         1 KE6       0.337000
     16 N11         14.8010    34.5320   -15.7380 nu         1 KE6      -0.977000
     17 O12         12.8250    35.4690   -14.0790 o          1 KE6      -0.633100
     18 N13         17.5260    32.0590   -16.2840 nb         1 KE6      -0.147000
     19 N14         15.3960    30.9300   -16.3100 nb         1 KE6      -0.147000
     20 C16         16.1120    36.2830   -16.8160 ca         1 KE6      -0.151000
     21 C18         16.7420    30.9660   -16.3970 ca         1 KE6       0.081900
     22 C19         15.7270    38.6020   -16.2120 ca         1 KE6       0.315300
     23 C23         10.6650    40.3920    -9.4910 c3         1 KE6      -0.103100
     24 C25         16.0250    40.0830   -16.3440 c3         1 KE6      -0.138400
     25 H27         11.0410    35.6890   -12.4070 ha         1 KE6       0.167000
     26 H28          9.3030    36.8510   -10.6500 h4         1 KE6       0.151000
     27 H31          8.9370    39.1990    -9.8940 h1         1 KE6       0.052700
     28 H33         17.1940    37.9570   -17.6690 ha         1 KE6       0.127000
     29 H34         13.6880    32.0800   -16.0220 h4         1 KE6       0.031600
     30 H35         17.5370    34.1060   -15.9510 h4         1 KE6       0.031600
     31 H40          8.4100    41.4440   -10.7730 hc         1 KE6       0.050533
     32 H41          9.6870    41.2940   -12.0000 hc         1 KE6       0.050533
     33 H39          8.2690    40.2230   -12.0530 hc         1 KE6       0.050533
     34 H26         13.2200    38.5610   -13.8200 hn         1 KE6       0.363500
     35 H29         13.9130    34.4120   -15.2220 hn         1 KE6       0.548000
     36 H30         16.6310    35.5450   -17.4190 ha         1 KE6       0.132000
     37 H32         17.2470    30.0170   -16.5690 h5         1 KE6       0.054100
     38 H36         10.1200    41.1000    -8.8570 hc         1 KE6       0.050533
     39 H37         11.1380    39.6470    -8.8400 hc         1 KE6       0.050533
     40 H38         11.4550    40.9390   -10.0190 hc         1 KE6       0.050533
     41 H42         15.3080    40.5650   -17.0180 hc         1 KE6       0.052700
     42 H44         15.9680    40.5890   -15.3730 hc         1 KE6       0.052700
     43 H43         17.0310    40.2520   -16.7450 hc         1 KE6       0.052700
     44 C17          9.7060    39.7050   -10.4900 c3         1 KE6       0.111300
@<TRIPOS>BOND
     1     1     2 1   
     2     1    10 2   
     3     1    13 1   
     4     2     3 2   
     5     2    25 1   
     6     3    12 1   
     7     3    26 1   
     8     4     6 ar  
     9     4     7 ar  
    10     4    16 1   
    11     5    20 ar  
    12     5    22 ar  
    13     5    28 1   
    14     6    19 ar  
    15     6    29 1   
    16     7    18 ar  
    17     7    30 1   
    18     8    31 1   
    19     8    32 1   
    20     8    33 1   
    21     8    44 1   
    22     9    11 1   
    23     9    14 ar  
    24     9    15 ar  
    25    10    12 1   
    26    11    13 1   
    27    11    17 2   
    28    12    44 1   
    29    13    34 1   
    30    14    22 ar  
    31    15    16 1   
    32    15    20 ar  
    33    16    35 1   
    34    18    21 ar  
    35    19    21 ar  
    36    20    36 1   
    37    21    37 1   
    38    22    24 1   
    39    23    38 1   
    40    23    39 1   
    41    23    40 1   
    42    23    44 1   
    43    24    41 1   
    44    24    42 1   
    45    24    43 1   
    46    27    44 1   
@<TRIPOS>SUBSTRUCTURE
     1 KE6         1 TEMP              0 ****  ****    0 ROOT
