@<TRIPOS>MOLECULE
KE6
   44    46     1     0     0
SMALL
abcg2


@<TRIPOS>ATOM
      1 C5          11.7440    37.7030   -12.6340 cc         1 KE6       0.377900
      2 C7          10.9410    36.6710   -12.1060 cc         1 KE6      -0.225000
      3 C10         10.0660    37.3330   -11.2640 cd         1 KE6      -0.154000
      4 C15         15.5010    33.3890   -15.9420 ca         1 KE6       0.214000
      5 C20         16.3470    37.6060   -16.8700 ca         1 KE6      -0.097000
      6 C21         14.8170    32.1770   -16.1090 ca         1 KE6       0.057900
      7 C22         16.8910    33.3190   -16.0790 ca         1 KE6       0.057900
      8 C24          9.0930    40.7430   -11.5540 c3         1 KE6      -0.103100
      9 C1          14.4160    36.8640   -15.1010 ca         1 KE6       0.218500
     10 N2          11.3910    38.8970   -12.1540 nd         1 KE6      -0.573800
     11 C3          13.2940    36.5640   -14.1600 c          1 KE6       0.528600
     12 N4          10.3610    38.6460   -11.3190 na         1 KE6       0.120800
     13 N6          12.7950    37.6560   -13.5400 ns         1 KE6      -0.438400
     14 N8          14.7050    38.1650   -15.2660 nb         1 KE6      -0.654000
     15 C9          15.1060    35.8450   -15.7910 ca         1 KE6       0.337000
     16 N11         14.7820    34.5200   -15.5980 nu         1 KE6      -0.977000
     17 O12         12.8580    35.4190   -13.9760 o          1 KE6      -0.633100
     18 N13         17.5130    32.1810   -16.3850 nb         1 KE6      -0.147000
     19 N14         15.4370    31.0400   -16.4020 nb         1 KE6      -0.147000
     20 C16         16.0780    36.2670   -16.7160 ca         1 KE6      -0.151000
     21 C18         16.7620    31.0930   -16.5420 ca         1 KE6       0.081900
     22 C19         15.6500    38.5560   -16.1070 ca         1 KE6       0.315300
     23 C23         10.6820    40.3850    -9.6080 c3         1 KE6      -0.103100
     24 C25         15.9440    40.0230   -16.2260 c3         1 KE6      -0.138400
     25 H27         10.9950    35.6200   -12.3100 ha         1 KE6       0.167000
     26 H28          9.2680    36.9630   -10.6410 h4         1 KE6       0.151000
     27 H31          8.9110    39.2460   -10.0260 h1         1 KE6       0.052700
     28 H33         17.0890    37.9290   -17.5890 ha         1 KE6       0.127000
     29 H34         13.7380    32.1470   -15.9900 h4         1 KE6       0.031600
     30 H35         17.5170    34.1870   -15.9200 h4         1 KE6       0.031600
     31 H40          8.5420    41.4980   -10.9920 hc         1 KE6       0.050533
     32 H41          9.8700    41.2430   -12.1330 hc         1 KE6       0.050533
     33 H39          8.4050    40.2500   -12.2410 hc         1 KE6       0.050533
     34 H26         13.2350    38.5330   -13.7960 hn         1 KE6       0.363500
     35 H29         13.9290    34.3880   -15.0590 hn         1 KE6       0.548000
     36 H30         16.5960    35.5450   -17.3290 ha         1 KE6       0.132000
     37 H32         17.2710    30.1710   -16.7970 h5         1 KE6       0.054100
     38 H36         10.1590    41.1390    -9.0180 hc         1 KE6       0.050533
     39 H37         11.1020    39.6410    -8.9290 hc         1 KE6       0.050533
     40 H38         11.4980    40.8710   -10.1430 hc         1 KE6       0.050533
     41 H42         15.2270    40.6000   -15.6440 hc         1 KE6       0.052700
     42 H44         16.9500    40.2470   -15.8610 hc         1 KE6       0.052700
     43 H43         15.8980    40.3470   -17.2680 hc         1 KE6       0.052700
     44 C17          9.7080    39.7360   -10.5870 c3         1 KE6       0.111300
@<TRIPOS>BOND
     1     1     2 1   
     2     1    10 2   
     3     1    13 1   
     4     2     3 2   
     5     2    25 1   
     6     3    12 1   
     7     3    26 1   
     8     4     6 ar  
     9     4     7 ar  
    10     4    16 1   
    11     5    20 ar  
    12     5    22 ar  
    13     5    28 1   
    14     6    19 ar  
    15     6    29 1   
    16     7    18 ar  
    17     7    30 1   
    18     8    31 1   
    19     8    32 1   
    20     8    33 1   
    21     8    44 1   
    22     9    11 1   
    23     9    14 ar  
    24     9    15 ar  
    25    10    12 1   
    26    11    13 1   
    27    11    17 2   
    28    12    44 1   
    29    13    34 1   
    30    14    22 ar  
    31    15    16 1   
    32    15    20 ar  
    33    16    35 1   
    34    18    21 ar  
    35    19    21 ar  
    36    20    36 1   
    37    21    37 1   
    38    22    24 1   
    39    23    38 1   
    40    23    39 1   
    41    23    40 1   
    42    23    44 1   
    43    24    41 1   
    44    24    42 1   
    45    24    43 1   
    46    27    44 1   
@<TRIPOS>SUBSTRUCTURE
     1 KE6         1 TEMP              0 ****  ****    0 ROOT
