@<TRIPOS>MOLECULE
KE7
   67    70     1     0     0
SMALL
bcc


@<TRIPOS>ATOM
      1 C1          -0.5830    -1.5310     0.1130 ca         1 KE7       0.968900
      2 C2          -2.8690    -1.4700     0.0150 ca         1 KE7       0.790600
      3 C3          -4.0340     0.5760     0.3940 c6         1 KE7       0.159100
      4 C4          -2.8780    -2.8350    -0.3120 ca         1 KE7      -0.384400
      5 C5          -1.6110    -3.4250    -0.3880 ca         1 KE7       0.507800
      6 C6          -3.1160    -5.0030    -0.8440 cc         1 KE7      -0.135100
      7 N1          -1.7370    -0.8490     0.2330 nb         1 KE7      -0.883000
      8 N2          -1.7760    -4.7250    -0.7080 na         1 KE7      -0.260100
      9 N3          -0.4470    -2.8050    -0.1840 nb         1 KE7      -0.803000
     10 O1          -4.0200    -0.8340     0.0970 os         1 KE7      -0.418100
     11 C7          -3.8190    -3.8610    -0.6080 cd         1 KE7       0.029200
     12 C8          -5.4380     0.9080     0.8670 c6         1 KE7      -0.083900
     13 C9          -5.5520     2.3970     1.1780 c6         1 KE7      -0.079900
     14 C10         -5.1630     3.2870    -0.0030 c6         1 KE7       0.154800
     15 C11         -3.7670     2.8890    -0.4920 c6         1 KE7      -0.079900
     16 C12         -3.6580     1.4050    -0.8250 c6         1 KE7      -0.083900
     17 C13         -5.1840     4.7570     0.4030 c3         1 KE7      -0.118100
     18 C14          1.8530    -0.9730     0.1120 ca         1 KE7       0.210600
     19 C15          2.4350    -2.2250    -0.0920 ca         1 KE7      -0.161000
     20 O2          -6.1290     3.0450    -1.0170 oh         1 KE7      -0.595800
     21 CL1         -5.5230    -3.7030    -0.6570 cl         1 KE7      -0.065400
     22 N4           0.5110    -0.7420     0.3350 nu         1 KE7      -0.725300
     23 C16          3.8020    -2.3410    -0.2940 ca         1 KE7      -0.076000
     24 C17          4.6280    -1.2250    -0.2950 ca         1 KE7      -0.166600
     25 C20          6.0830    -1.3000    -0.6180 c          1 KE7       0.686700
     26 O3           6.5620    -0.5070    -1.4230 o          1 KE7      -0.601100
     27 N5           6.8160    -2.2700    -0.0360 n          1 KE7      -0.473800
     28 C22          6.4530    -2.9660     1.1830 c3         1 KE7       0.086300
     29 C21          8.1840    -2.4730    -0.4640 c3         1 KE7       0.086300
     30 C18          4.0540     0.0300    -0.1040 ca         1 KE7      -0.087000
     31 C19          2.6970     0.1540     0.1060 ca         1 KE7       0.025100
     32 O4           2.1180     1.3670     0.3610 os         1 KE7      -0.336900
     33 C23          2.2870     2.4210    -0.5730 c3         1 KE7       0.093100
     34 C24          2.4700     3.7180     0.1860 c3         1 KE7      -0.100100
     35 C25          1.0590     2.4390    -1.4760 c3         1 KE7       0.634900
     36 F2           0.9110     1.2810    -2.1300 f          1 KE7      -0.233300
     37 F3          -0.0700     2.6470    -0.7880 f          1 KE7      -0.233300
     38 F1           1.1510     3.4060    -2.3940 f          1 KE7      -0.233300
     39 H1          -3.3190     0.7710     1.1990 h1         1 KE7       0.063700
     40 H2          -3.4620    -5.9910    -1.0970 h4         1 KE7       0.180000
     41 H3          -1.0320    -5.3930    -0.8380 hn         1 KE7       0.313700
     42 H4          -6.1590     0.6310     0.0940 hc         1 KE7       0.062450
     43 H5          -5.6820     0.3270     1.7590 hc         1 KE7       0.062450
     44 H6          -6.5720     2.6310     1.4950 hc         1 KE7       0.048700
     45 H7          -4.9040     2.6480     2.0240 hc         1 KE7       0.048700
     46 H8          -3.4930     3.4870    -1.3670 hc         1 KE7       0.048700
     47 H9          -3.0370     3.1400     0.2850 hc         1 KE7       0.048700
     48 H10         -2.6380     1.1800    -1.1390 hc         1 KE7       0.062450
     49 H11         -4.3220     1.1510    -1.6550 hc         1 KE7       0.062450
     50 H12         -4.4680     4.9590     1.2000 hc         1 KE7       0.041367
     51 H13         -4.9220     5.4000    -0.4410 hc         1 KE7       0.041367
     52 H14         -6.1740     5.0500     0.7570 hc         1 KE7       0.041367
     53 H15          1.8150    -3.1060    -0.1070 ha         1 KE7       0.173000
     54 H16         -5.8680     3.5320    -1.8050 ho         1 KE7       0.401000
     55 H17          0.2640     0.2130     0.5450 hn         1 KE7       0.472800
     56 H18          4.2130    -3.3280    -0.4650 ha         1 KE7       0.139000
     57 H19          6.3060    -4.0330     1.0050 h1         1 KE7       0.041867
     58 H20          7.2550    -2.8510     1.9140 h1         1 KE7       0.041867
     59 H21          5.5470    -2.5590     1.6210 h1         1 KE7       0.041867
     60 H22          8.3020    -2.2360    -1.5170 h1         1 KE7       0.041867
     61 H23          8.8850    -1.8640     0.1130 h1         1 KE7       0.041867
     62 H24          8.4470    -3.5210    -0.3180 h1         1 KE7       0.041867
     63 H25          4.6790     0.9150    -0.1030 ha         1 KE7       0.151000
     64 H26          3.1560     2.2430    -1.2160 h1         1 KE7       0.084700
     65 H27          1.6450     3.9040     0.8730 hc         1 KE7       0.061367
     66 H28          3.3920     3.6680     0.7640 hc         1 KE7       0.061367
     67 H29          2.5530     4.5640    -0.4930 hc         1 KE7       0.061367
@<TRIPOS>BOND
     1     1     7 ar  
     2     1     9 ar  
     3     1    22 1   
     4     2     4 ar  
     5     2     7 ar  
     6     2    10 1   
     7     3    10 1   
     8     3    12 1   
     9     3    16 1   
    10     3    39 1   
    11     4     5 ar  
    12     4    11 1   
    13     5     8 1   
    14     5     9 ar  
    15     6     8 1   
    16     6    11 2   
    17     6    40 1   
    18     8    41 1   
    19    11    21 1   
    20    12    13 1   
    21    12    42 1   
    22    12    43 1   
    23    13    14 1   
    24    13    44 1   
    25    13    45 1   
    26    14    15 1   
    27    14    17 1   
    28    14    20 1   
    29    15    16 1   
    30    15    46 1   
    31    15    47 1   
    32    16    48 1   
    33    16    49 1   
    34    17    50 1   
    35    17    51 1   
    36    17    52 1   
    37    18    19 ar  
    38    18    22 1   
    39    18    31 ar  
    40    19    23 ar  
    41    19    53 1   
    42    20    54 1   
    43    22    55 1   
    44    23    24 ar  
    45    23    56 1   
    46    24    25 1   
    47    24    30 ar  
    48    25    26 2   
    49    25    27 1   
    50    27    28 1   
    51    27    29 1   
    52    28    57 1   
    53    28    58 1   
    54    28    59 1   
    55    29    60 1   
    56    29    61 1   
    57    29    62 1   
    58    30    31 ar  
    59    30    63 1   
    60    31    32 1   
    61    32    33 1   
    62    33    34 1   
    63    33    35 1   
    64    33    64 1   
    65    34    65 1   
    66    34    66 1   
    67    34    67 1   
    68    35    36 1   
    69    35    37 1   
    70    35    38 1   
@<TRIPOS>SUBSTRUCTURE
     1 KE7         1 TEMP              0 ****  ****    0 ROOT
