@<TRIPOS>MOLECULE
KE7
   67    70     1     0     0
SMALL
No Charge or Current Charge


@<TRIPOS>ATOM
      1 C1          -0.5930    -1.4910     0.0200 ca         1 KE7       0.442900
      2 C2          -2.8850    -1.4640     0.1580 ca         1 KE7       0.462300
      3 C3          -4.1800     0.5580     0.6750 c6         1 KE7       0.182300
      4 C4          -2.8660    -2.7840    -0.3120 ca         1 KE7      -0.253800
      5 C5          -1.6750    -3.3930    -0.6110 ca         1 KE7       0.179500
      6 C6          -3.3450    -4.9260    -1.0590 cc         1 KE7      -0.185100
      7 N1          -1.7120    -0.8150     0.3290 nb         1 KE7      -0.357000
      8 N2          -1.9530    -4.6760    -1.0580 na         1 KE7      -0.310400
      9 N3          -0.5080    -2.7500    -0.4550 nb         1 KE7      -0.277000
     10 O1          -4.0900    -0.8680     0.4670 os         1 KE7      -0.441300
     11 C7          -3.8980    -3.7480    -0.5960 cd         1 KE7       0.104800
     12 C8          -5.5440     0.8880     1.3290 c6         1 KE7      -0.083900
     13 C9          -5.7210     2.4170     1.5350 c6         1 KE7      -0.079900
     14 C10         -5.5600     3.2180     0.2100 c6         1 KE7       0.178000
     15 C11         -4.2030     2.8570    -0.4630 c6         1 KE7      -0.079900
     16 C12         -4.0280     1.3270    -0.6660 c6         1 KE7      -0.083900
     17 C13         -5.6410     4.7430     0.4860 c3         1 KE7      -0.118100
     18 C14          1.9340    -0.9570     0.0040 ca         1 KE7       0.349000
     19 C15          2.5180    -2.2360     0.0200 ca         1 KE7      -0.143000
     20 O2          -6.6360     2.8950    -0.6750 oh         1 KE7      -0.658000
     21 Cl1         -5.5940    -3.4490    -0.3840 cl         1 KE7      -0.141000
     22 N4           0.5580    -0.7470     0.1800 nu         1 KE7      -0.918900
     23 C16          3.9030    -2.3940    -0.1500 ca         1 KE7      -0.058000
     24 C17          4.7390    -1.2690    -0.3140 ca         1 KE7      -0.166600
     25 C20          6.2370    -1.4040    -0.5130 c          1 KE7       0.619700
     26 O3           6.8330    -0.6200    -1.2430 o          1 KE7      -0.601100
     27 N5           6.9170    -2.4950     0.0780 n          1 KE7      -0.406800
     28 C22          6.4920    -3.0310     1.3930 c3         1 KE7       0.086300
     29 C21          8.3200    -2.7700    -0.3020 c3         1 KE7       0.086300
     30 C18          4.1540     0.0150    -0.3380 ca         1 KE7      -0.069000
     31 C19          2.7590     0.1800    -0.1770 ca         1 KE7       0.025100
     32 O4           2.1590     1.4370    -0.1610 os         1 KE7      -0.360100
     33 C23          2.7560     2.6350    -0.7160 c3         1 KE7       0.116300
     34 C24          1.9680     3.8150    -0.1050 c3         1 KE7      -0.100100
     35 C25          2.6890     2.5970    -2.2780 c3         1 KE7       0.271000
     36 F2           3.4450     1.6000    -2.7910 f          1 KE7      -0.112000
     37 F3           1.4190     2.4150    -2.7130 f          1 KE7      -0.112000
     38 F1           3.1420     3.7570    -2.8070 f          1 KE7      -0.112000
     39 H1          -3.3870     0.8720     1.3710 h1         1 KE7       0.063700
     40 H2          -3.8020    -5.8610    -1.3690 h4         1 KE7       0.230000
     41 H3          -1.2380    -5.3370    -1.3460 hn         1 KE7       0.364000
     42 H4          -6.3590     0.4980     0.7040 hc         1 KE7       0.062450
     43 H5          -5.6220     0.3740     2.2970 hc         1 KE7       0.062450
     44 H6          -6.7070     2.6160     1.9780 hc         1 KE7       0.048700
     45 H7          -4.9810     2.7670     2.2690 hc         1 KE7       0.048700
     46 H8          -4.1110     3.3690    -1.4310 hc         1 KE7       0.048700
     47 H9          -3.3760     3.2310     0.1570 hc         1 KE7       0.048700
     48 H10         -3.0420     1.1340    -1.1080 hc         1 KE7       0.062450
     49 H11         -4.7670     0.9570    -1.3900 hc         1 KE7       0.062450
     50 H12         -4.8480     5.0650     1.1710 hc         1 KE7       0.041367
     51 H13         -5.5340     5.3260    -0.4370 hc         1 KE7       0.041367
     52 H14         -6.6000     5.0160     0.9420 hc         1 KE7       0.041367
     53 H15          1.9100    -3.1200     0.1740 ha         1 KE7       0.155000
     54 H16         -6.5270     3.4600    -1.4680 ho         1 KE7       0.440000
     55 H17          0.3550     0.2410     0.3250 hn         1 KE7       0.528000
     56 H18          4.3150    -3.4000    -0.1710 ha         1 KE7       0.121000
     57 H19          6.0190    -4.0120     1.2590 h1         1 KE7       0.041867
     58 H20          7.3630    -3.1490     2.0500 h1         1 KE7       0.041867
     59 H21          5.7850    -2.3490     1.8810 h1         1 KE7       0.041867
     60 H22          8.4170    -2.7810    -1.3950 h1         1 KE7       0.041867
     61 H23          8.9760    -1.9930     0.1120 h1         1 KE7       0.041867
     62 H24          8.6320    -3.7490     0.0870 h1         1 KE7       0.041867
     63 H25          4.8030     0.8760    -0.4650 ha         1 KE7       0.133000
     64 H26          3.8010     2.7450    -0.4020 h1         1 KE7       0.084700
     65 H27          0.9090     3.7700    -0.3870 hc         1 KE7       0.061367
     66 H28          2.0330     3.7920     0.9890 hc         1 KE7       0.061367
     67 H29          2.3750     4.7740    -0.4460 hc         1 KE7       0.061367
@<TRIPOS>BOND
     1     1     7 ar  
     2     1     9 ar  
     3     1    22 1   
     4     2     4 ar  
     5     2     7 ar  
     6     2    10 1   
     7     3    10 1   
     8     3    12 1   
     9     3    16 1   
    10     3    39 1   
    11     4     5 ar  
    12     4    11 1   
    13     5     8 1   
    14     5     9 ar  
    15     6     8 1   
    16     6    11 2   
    17     6    40 1   
    18     8    41 1   
    19    11    21 1   
    20    12    13 1   
    21    12    42 1   
    22    12    43 1   
    23    13    14 1   
    24    13    44 1   
    25    13    45 1   
    26    14    15 1   
    27    14    17 1   
    28    14    20 1   
    29    15    16 1   
    30    15    46 1   
    31    15    47 1   
    32    16    48 1   
    33    16    49 1   
    34    17    50 1   
    35    17    51 1   
    36    17    52 1   
    37    18    19 ar  
    38    18    22 1   
    39    18    31 ar  
    40    19    23 ar  
    41    19    53 1   
    42    20    54 1   
    43    22    55 1   
    44    23    24 ar  
    45    23    56 1   
    46    24    25 1   
    47    24    30 ar  
    48    25    26 2   
    49    25    27 1   
    50    27    28 1   
    51    27    29 1   
    52    28    57 1   
    53    28    58 1   
    54    28    59 1   
    55    29    60 1   
    56    29    61 1   
    57    29    62 1   
    58    30    31 ar  
    59    30    63 1   
    60    31    32 1   
    61    32    33 1   
    62    33    34 1   
    63    33    35 1   
    64    33    64 1   
    65    34    65 1   
    66    34    66 1   
    67    34    67 1   
    68    35    36 1   
    69    35    37 1   
    70    35    38 1   
@<TRIPOS>SUBSTRUCTURE
     1 KE7         1 TEMP              0 ****  ****    0 ROOT
