@<TRIPOS>MOLECULE
KE8
   59    63     1     0     0
SMALL
abcg2


@<TRIPOS>ATOM
      1 C1          13.6700     9.1150    40.1740 c3         1 KE8       0.063900
      2 C5          10.2690     9.7920    41.1680 cc         1 KE8      -0.241000
      3 C6          11.4330     9.0570    41.2970 cd         1 KE8       0.250000
      4 C8          11.0540     7.3350    43.0130 ca         1 KE8       0.399900
      5 C10         10.9820     5.6760    44.5350 ca         1 KE8       0.154900
      6 C11          9.6590     5.9660    44.8250 ca         1 KE8      -0.253000
      7 C12          9.0970     7.0190    44.1140 ca         1 KE8       0.250500
      8 C14          7.7210     7.4460    44.3030 cc         1 KE8      -0.315500
      9 C15          6.7620     6.9500    45.1450 cd         1 KE8      -0.026000
     10 C16          5.5560     7.6680    45.0050 cd         1 KE8      -0.191600
     11 C21          2.0280     9.7530    46.6030 c3         1 KE8       0.144800
     12 C23          0.1880    11.2330    46.1060 c6         1 KE8       0.127800
     13 C24         -1.2770    11.5020    46.3970 c6         1 KE8       0.153100
     14 C26         -1.0540    10.6220    48.5330 c6         1 KE8       0.153100
     15 C27          0.4170    10.3410    48.2920 c6         1 KE8       0.127800
     16 C28          4.3100     9.3890    43.9590 c5         1 KE8       0.207700
     17 C31          5.6140     8.6660    44.0880 cc         1 KE8      -0.248300
     18 N2          12.3200     9.5650    40.4130 na         1 KE8       0.089800
     19 N3          11.8060    10.5870    39.7150 nd         1 KE8      -0.522800
     20 C4          10.5770    10.7250    40.1660 cc         1 KE8       0.254900
     21 N9          11.6910     6.3420    43.6400 nb         1 KE8      -0.241000
     22 N13          9.7980     7.7020    43.2080 nb         1 KE8      -0.246000
     23 C17          4.2020     7.6490    45.5830 c          1 KE8       0.601600
     24 O18          3.7540     6.8960    46.4300 o          1 KE8      -0.538000
     25 N19          3.5290     8.6580    44.9690 n          1 KE8      -0.424800
     26 C20          2.1590     8.9800    45.2910 c3         1 KE8       0.115000
     27 N22          0.6490    10.0930    46.8800 n3         1 KE8      -0.718600
     28 O25         -1.5030    11.7220    47.7710 os         1 KE8      -0.450000
     29 C29          3.7210     9.1990    42.5600 c3         1 KE8      -0.094600
     30 C30          4.4500    10.8700    44.3070 c3         1 KE8      -0.094600
     31 S32          7.1350     8.7820    43.3490 ss         1 KE8       0.367000
     32 H33         14.1030     9.7520    39.4100 h1         1 KE8       0.057033
     33 H34         14.2780     9.1910    41.0750 h1         1 KE8       0.057033
     34 H35         13.6860     8.0850    39.8190 h1         1 KE8       0.057033
     35 H37          9.3510     9.6750    41.7090 ha         1 KE8       0.160000
     36 H39         11.4890     4.8680    45.0500 h4         1 KE8       0.027100
     37 H40          9.1120     5.3980    45.5620 ha         1 KE8       0.142000
     38 H41          6.9130     6.1220    45.8220 ha         1 KE8       0.151000
     39 H44          2.3940     9.1160    47.4110 h1         1 KE8       0.043700
     40 H45          2.6790    10.6420    46.5860 h1         1 KE8       0.043700
     41 H46          0.7820    12.1360    46.3310 h1         1 KE8       0.040200
     42 H48         -1.6060    12.3950    45.8630 h1         1 KE8       0.050950
     43 H49         -1.8780    10.6530    46.0410 h1         1 KE8       0.050950
     44 H50         -1.2250    10.8600    49.5840 h1         1 KE8       0.050950
     45 H51         -1.6380     9.7240    48.2880 h1         1 KE8       0.050950
     46 H53          0.7090     9.4610    48.8690 h1         1 KE8       0.040200
     47 H52          1.0190    11.1880    48.6640 h1         1 KE8       0.040200
     48 H36          9.9340    11.4930    39.7610 h4         1 KE8       0.035100
     49 H42          1.7440     9.5500    44.4590 h1         1 KE8       0.058200
     50 H43          1.5740     8.0620    45.3550 h1         1 KE8       0.058200
     51 H56          2.7270     9.6400    42.4880 hc         1 KE8       0.049033
     52 H54          4.3510     9.6880    41.8180 hc         1 KE8       0.049033
     53 H55          3.6490     8.1410    42.3100 hc         1 KE8       0.049033
     54 H58          4.8600    11.0000    45.3080 hc         1 KE8       0.049033
     55 H59          5.1180    11.3570    43.5960 hc         1 KE8       0.049033
     56 H57          3.4890    11.3830    44.2550 hc         1 KE8       0.049033
     57 N7          11.8100     8.0020    42.0970 nu         1 KE8      -0.923900
     58 H47          0.2960    11.0370    45.0370 h1         1 KE8       0.040200
     59 H38         12.7530     7.6550    42.0100 hn         1 KE8       0.517000
@<TRIPOS>BOND
     1     1    18 1   
     2     1    32 1   
     3     1    33 1   
     4     1    34 1   
     5     2     3 2   
     6     2    20 1   
     7     2    35 1   
     8     3    18 1   
     9     3    57 1   
    10     4    21 ar  
    11     4    22 ar  
    12     4    57 1   
    13     5     6 ar  
    14     5    21 ar  
    15     5    36 1   
    16     6     7 ar  
    17     6    37 1   
    18     7     8 1   
    19     7    22 ar  
    20     8     9 2   
    21     8    31 1   
    22     9    10 1   
    23     9    38 1   
    24    10    17 2   
    25    10    23 1   
    26    11    26 1   
    27    11    27 1   
    28    11    39 1   
    29    11    40 1   
    30    12    13 1   
    31    12    27 1   
    32    12    41 1   
    33    12    58 1   
    34    13    28 1   
    35    13    42 1   
    36    13    43 1   
    37    14    15 1   
    38    14    28 1   
    39    14    44 1   
    40    14    45 1   
    41    15    27 1   
    42    15    46 1   
    43    15    47 1   
    44    16    17 1   
    45    16    25 1   
    46    16    29 1   
    47    16    30 1   
    48    17    31 1   
    49    18    19 1   
    50    19    20 2   
    51    20    48 1   
    52    23    24 2   
    53    23    25 1   
    54    25    26 1   
    55    26    49 1   
    56    26    50 1   
    57    29    51 1   
    58    29    52 1   
    59    29    53 1   
    60    30    54 1   
    61    30    55 1   
    62    30    56 1   
    63    57    59 1   
@<TRIPOS>SUBSTRUCTURE
     1 KE8         1 TEMP              0 ****  ****    0 ROOT
