@<TRIPOS>MOLECULE
KE8
   59    63     1     0     0
SMALL
No Charge or Current Charge


@<TRIPOS>ATOM
      1 C1          14.0260     8.2880    39.7020 c3         1 KE8       0.063900
      2 C5          10.6550     9.3290    40.5330 cc         1 KE8      -0.241000
      3 C6          11.7390     8.5790    40.8500 cd         1 KE8       0.250000
      4 C8          11.1730     7.3380    43.0080 ca         1 KE8       0.399900
      5 C10         11.0490     6.0430    44.8890 ca         1 KE8       0.154900
      6 C11          9.7660     6.5510    45.1440 ca         1 KE8      -0.253000
      7 C12          9.2420     7.4920    44.2400 ca         1 KE8       0.250500
      8 C14          7.9130     8.0640    44.4180 cc         1 KE8      -0.315500
      9 C15          6.8630     7.3160    44.9180 cd         1 KE8      -0.026000
     10 C16          5.6640     8.0730    44.9100 cd         1 KE8      -0.191600
     11 C21          1.7740     9.7120    46.6230 c3         1 KE8       0.144800
     12 C23         -0.4290    10.7360    46.0120 c6         1 KE8       0.127800
     13 C24         -1.9480    10.7890    46.3590 c6         1 KE8       0.153100
     14 C26         -1.4920    10.1680    48.6410 c6         1 KE8       0.153100
     15 C27          0.0370    10.1070    48.3450 c6         1 KE8       0.127800
     16 C28          4.5020    10.0730    44.3880 c5         1 KE8       0.207700
     17 C31          5.7950     9.3200    44.4180 cc         1 KE8      -0.248300
     18 N2          12.6730     8.8510    39.8320 na         1 KE8       0.089800
     19 N3          12.1860     9.7580    38.8920 nd         1 KE8      -0.522800
     20 C4          10.9770    10.0140    39.3540 cc         1 KE8       0.254900
     21 N9          11.7580     6.4380    43.8150 nb         1 KE8      -0.241000
     22 N13          9.9530     7.8830    43.1660 nb         1 KE8      -0.246000
     23 C17          4.2700     7.8360    45.2940 c          1 KE8       0.601600
     24 O18          3.7800     6.8210    45.7690 o          1 KE8      -0.538000
     25 N19          3.6010     9.0450    45.0000 n          1 KE8      -0.424800
     26 C20          2.1420     9.1770    45.2170 c3         1 KE8       0.115000
     27 N22          0.3160     9.7920    46.9080 n3         1 KE8      -0.718600
     28 O25         -2.1360    11.1150    47.7560 os         1 KE8      -0.450000
     29 C29          4.0750    10.4210    42.9440 c3         1 KE8      -0.094600
     30 C30          4.5600    11.3650    45.2320 c3         1 KE8      -0.094600
     31 S32          7.4230     9.6820    43.8730 ss         1 KE8       0.367000
     32 H33         14.5190     8.6960    38.8120 h1         1 KE8       0.057033
     33 H34         14.6160     8.5450    40.5900 h1         1 KE8       0.057033
     34 H35         13.9610     7.1970    39.6090 h1         1 KE8       0.057033
     35 H37          9.7130     9.4070    41.0590 ha         1 KE8       0.160000
     36 H39         11.5160     5.3160    45.5510 h4         1 KE8       0.027100
     37 H40          9.2090     6.2300    46.0200 ha         1 KE8       0.142000
     38 H41          6.9300     6.2870    45.2600 ha         1 KE8       0.151000
     39 H44          2.2480     9.0470    47.3570 h1         1 KE8       0.043700
     40 H45          2.2290    10.7020    46.7530 h1         1 KE8       0.043700
     41 H46         -0.0130    11.7510    46.0980 h1         1 KE8       0.040200
     42 H48         -2.4470    11.5480    45.7400 h1         1 KE8       0.050950
     43 H49         -2.4140     9.8150    46.1480 h1         1 KE8       0.050950
     44 H50         -1.6600    10.4750    49.6820 h1         1 KE8       0.050950
     45 H51         -1.9420     9.1750    48.4990 h1         1 KE8       0.050950
     46 H53          0.4910     9.3470    48.9970 h1         1 KE8       0.040200
     47 H52          0.4850    11.0740    48.6170 h1         1 KE8       0.040200
     48 H36         10.3480    10.7060    38.8100 h4         1 KE8       0.035100
     49 H42          1.7370     9.8530    44.4550 h1         1 KE8       0.058200
     50 H43          1.6660     8.1990    45.0710 h1         1 KE8       0.058200
     51 H56          3.1050    10.9310    42.9210 hc         1 KE8       0.049033
     52 H54          4.8070    11.0810    42.4640 hc         1 KE8       0.049033
     53 H55          3.9920     9.5160    42.3310 hc         1 KE8       0.049033
     54 H58          4.8220    11.1420    46.2730 hc         1 KE8       0.049033
     55 H59          5.3130    12.0590    44.8410 hc         1 KE8       0.049033
     56 H57          3.5960    11.8870    45.2320 hc         1 KE8       0.049033
     57 N7          11.9390     7.7200    41.9130 nu         1 KE8      -0.923900
     58 H47         -0.3300    10.4350    44.9600 h1         1 KE8       0.040200
     59 H38         12.8490     7.2580    41.9030 hn         1 KE8       0.517000
@<TRIPOS>BOND
     1     1    18 1   
     2     1    32 1   
     3     1    33 1   
     4     1    34 1   
     5     2     3 2   
     6     2    20 1   
     7     2    35 1   
     8     3    18 1   
     9     3    57 1   
    10     4    21 ar  
    11     4    22 ar  
    12     4    57 1   
    13     5     6 ar  
    14     5    21 ar  
    15     5    36 1   
    16     6     7 ar  
    17     6    37 1   
    18     7     8 1   
    19     7    22 ar  
    20     8     9 2   
    21     8    31 1   
    22     9    10 1   
    23     9    38 1   
    24    10    17 2   
    25    10    23 1   
    26    11    26 1   
    27    11    27 1   
    28    11    39 1   
    29    11    40 1   
    30    12    13 1   
    31    12    27 1   
    32    12    41 1   
    33    12    58 1   
    34    13    28 1   
    35    13    42 1   
    36    13    43 1   
    37    14    15 1   
    38    14    28 1   
    39    14    44 1   
    40    14    45 1   
    41    15    27 1   
    42    15    46 1   
    43    15    47 1   
    44    16    17 1   
    45    16    25 1   
    46    16    29 1   
    47    16    30 1   
    48    17    31 1   
    49    18    19 1   
    50    19    20 2   
    51    20    48 1   
    52    23    24 2   
    53    23    25 1   
    54    25    26 1   
    55    26    49 1   
    56    26    50 1   
    57    29    51 1   
    58    29    52 1   
    59    29    53 1   
    60    30    54 1   
    61    30    55 1   
    62    30    56 1   
    63    57    59 1   
@<TRIPOS>SUBSTRUCTURE
     1 KE8         1 TEMP              0 ****  ****    0 ROOT
