@<TRIPOS>MOLECULE
KE9
   56    59     1     0     0
SMALL
abcg2


@<TRIPOS>ATOM
      1 C1           3.7410    -2.0040     1.2570 c3         1 KE9      -0.122100
      2 C2           2.9090    -1.9050    -0.0260 c6         1 KE9       0.191500
      3 C4           3.4420    -0.8140    -0.9560 c6         1 KE9       0.008800
      4 C5           3.0510     0.5140    -0.4120 cc         1 KE9      -0.128400
      5 C6           3.5860     1.8270    -0.5980 ca         1 KE9      -0.085800
      6 C7           4.6450     2.3530    -1.3450 ca         1 KE9      -0.063000
      7 C8           4.8900     3.7130    -1.2930 ca         1 KE9      -0.150000
      8 C9           4.0950     4.5620    -0.5080 ca         1 KE9      -0.101000
      9 C10          3.0410     4.0710     0.2420 ca         1 KE9      -0.127000
     10 C11          2.7970     2.7010     0.1870 ca         1 KE9      -0.041200
     11 N12          1.8430     1.9470     0.8110 na         1 KE9      -0.211700
     12 C14          2.0040     0.6380     0.4450 cd         1 KE9      -0.051300
     13 C15          1.1420    -0.4790     0.9340 c6         1 KE9       0.329000
     14 N17          1.4700    -1.6990     0.1970 n3         1 KE9      -0.730600
     15 C18          0.7880    -2.8720     0.7100 c3         1 KE9       0.161800
     16 C19          0.2500    -3.8320    -0.3510 c3         1 KE9       0.208000
     17 C20         -0.5390    -4.9410     0.3210 c3         1 KE9      -0.113600
     18 C21         -0.5540    -3.1260    -1.4220 c3         1 KE9      -0.113600
     19 F22          1.3470    -4.4500    -0.9960 f          1 KE9      -0.287000
     20 C23         -0.3200    -0.1240     0.7570 ca         1 KE9      -0.237300
     21 C24         -1.2360    -0.1280     1.7980 ca         1 KE9       0.209000
     22 C25         -2.5730     0.1820     1.6440 ca         1 KE9      -0.195500
     23 C26         -3.0610     0.5170     0.3830 ca         1 KE9       0.067200
     24 C27         -2.1680     0.5490    -0.6920 ca         1 KE9      -0.195500
     25 C28         -0.8460     0.2370    -0.4820 ca         1 KE9       0.209000
     26 F29         -0.0160     0.2980    -1.5270 f          1 KE9      -0.180000
     27 C30         -4.4840     0.8260     0.2380 ce         1 KE9      -0.261200
     28 C31         -5.1480     0.9910    -0.9070 cf         1 KE9      -0.186200
     29 C32         -6.6290     1.3000    -0.9630 c          1 KE9       0.694200
     30 O33         -7.1160     1.3700    -2.1090 o          1 KE9      -0.713500
     31 O34         -7.2290     1.4560     0.1180 o          1 KE9      -0.713500
     32 F35         -0.8120    -0.4620     3.0260 f          1 KE9      -0.180000
     33 H11C         3.7870    -1.0570     1.7970 hc         1 KE9       0.034700
     34 H12C         3.3420    -2.7550     1.9400 hc         1 KE9       0.034700
     35 H13C         4.7640    -2.2960     1.0170 hc         1 KE9       0.034700
     36 H2           2.9960    -2.8540    -0.5510 h1         1 KE9       0.070700
     37 H41C         4.5280    -0.9050    -1.0440 hc         1 KE9       0.050700
     38 H42C         3.0340    -0.9620    -1.9610 hc         1 KE9       0.050700
     39 H7           5.2630     1.7050    -1.9540 ha         1 KE9       0.108000
     40 H8           5.7080     4.1330    -1.8650 ha         1 KE9       0.102000
     41 H9           4.3120     5.6230    -0.4860 ha         1 KE9       0.102000
     42 H10          2.4310     4.7280     0.8490 ha         1 KE9       0.111000
     43 H12          1.1340     2.3030     1.4310 hn         1 KE9       0.356000
     44 H15          1.3290    -0.5960     2.0130 h1         1 KE9       0.043700
     45 H181         1.4120    -3.4430     1.4120 h1         1 KE9       0.043200
     46 H182        -0.0830    -2.5580     1.2890 h1         1 KE9       0.043200
     47 H201        -1.4350    -4.5400     0.7960 hc         1 KE9       0.049200
     48 H202        -0.8550    -5.6910    -0.4060 hc         1 KE9       0.049200
     49 H203         0.0530    -5.4400     1.0900 hc         1 KE9       0.049200
     50 H211         0.0460    -2.3660    -1.9190 hc         1 KE9       0.049200
     51 H212        -0.9190    -3.8350    -2.1660 hc         1 KE9       0.049200
     52 H213        -1.4200    -2.6330    -0.9790 hc         1 KE9       0.049200
     53 H25         -3.2320     0.1550     2.5020 ha         1 KE9       0.140500
     54 H27         -2.4910     0.8260    -1.6860 ha         1 KE9       0.140500
     55 H30         -5.0410     0.9110     1.1670 ha         1 KE9       0.198000
     56 H31         -4.6380     0.8920    -1.8610 ha         1 KE9       0.147000
@<TRIPOS>BOND
     1     1     2 1   
     2     1    33 1   
     3     1    34 1   
     4     1    35 1   
     5     2     3 1   
     6     2    14 1   
     7     2    36 1   
     8     3     4 1   
     9     3    37 1   
    10     3    38 1   
    11     4     5 1   
    12     4    12 2   
    13     5     6 ar  
    14     5    10 ar  
    15     6     7 ar  
    16     6    39 1   
    17     7     8 ar  
    18     7    40 1   
    19     8     9 ar  
    20     8    41 1   
    21     9    10 ar  
    22     9    42 1   
    23    10    11 1   
    24    11    12 1   
    25    11    43 1   
    26    12    13 1   
    27    13    14 1   
    28    13    20 1   
    29    13    44 1   
    30    14    15 1   
    31    15    16 1   
    32    15    45 1   
    33    15    46 1   
    34    16    17 1   
    35    16    18 1   
    36    16    19 1   
    37    17    47 1   
    38    17    48 1   
    39    17    49 1   
    40    18    50 1   
    41    18    51 1   
    42    18    52 1   
    43    20    21 ar  
    44    20    25 ar  
    45    21    22 ar  
    46    21    32 1   
    47    22    23 ar  
    48    22    53 1   
    49    23    24 ar  
    50    23    27 1   
    51    24    25 ar  
    52    24    54 1   
    53    25    26 1   
    54    27    28 2   
    55    27    55 1   
    56    28    29 1   
    57    28    56 1   
    58    29    30 1   
    59    29    31 1   
@<TRIPOS>SUBSTRUCTURE
     1 KE9         1 TEMP              0 ****  ****    0 ROOT
