@<TRIPOS>MOLECULE
KE9
   56    59     1     0     0
SMALL
No Charge or Current Charge


@<TRIPOS>ATOM
      1 C1           3.5840    -2.1250     1.2410 c3         1 KE9      -0.122100
      2 C2           2.8280    -1.8870    -0.1020 c6         1 KE9       0.191500
      3 C4           3.4780    -0.7290    -0.9160 c6         1 KE9       0.008800
      4 C5           3.0480     0.6080    -0.3800 cc         1 KE9      -0.128400
      5 C6           3.5850     1.9250    -0.5580 ca         1 KE9      -0.085800
      6 C7           4.7100     2.3570    -1.2740 ca         1 KE9      -0.063000
      7 C8           5.0000     3.7380    -1.2710 ca         1 KE9      -0.150000
      8 C9           4.1710     4.6410    -0.5630 ca         1 KE9      -0.101000
      9 C10          3.0450     4.1690     0.1460 ca         1 KE9      -0.127000
     10 C11          2.7810     2.7930     0.1260 ca         1 KE9      -0.041200
     11 N12          1.7420     2.1170     0.7430 na         1 KE9      -0.211700
     12 C14          1.9140     0.7510     0.4060 cd         1 KE9      -0.051300
     13 C15          1.0270    -0.4130     0.8320 c6         1 KE9       0.329000
     14 N17          1.3490    -1.6690     0.0720 n3         1 KE9      -0.730600
     15 C18          0.5800    -2.8570     0.5780 c3         1 KE9       0.161800
     16 C19          0.5770    -4.1670    -0.2860 c3         1 KE9       0.208000
     17 C20         -0.4680    -5.1610     0.2690 c3         1 KE9      -0.113600
     18 C21          0.2960    -3.8750    -1.7800 c3         1 KE9      -0.113600
     19 F22          1.7830    -4.7820    -0.1940 f          1 KE9      -0.287000
     20 C23         -0.4570    -0.0350     0.7200 ca         1 KE9      -0.237300
     21 C24         -1.2850    -0.0250     1.8590 ca         1 KE9       0.209000
     22 C25         -2.6420     0.3150     1.7590 ca         1 KE9      -0.195500
     23 C26         -3.2070     0.6540     0.5190 ca         1 KE9       0.067200
     24 C27         -2.3850     0.6480    -0.6220 ca         1 KE9      -0.195500
     25 C28         -1.0270     0.3070    -0.5230 ca         1 KE9       0.209000
     26 F29         -0.2780     0.3190    -1.6490 f          1 KE9      -0.180000
     27 C30         -4.6520     1.0110     0.4440 ce         1 KE9      -0.261200
     28 C31         -5.4060     1.3670    -0.6440 cf         1 KE9      -0.186200
     29 C32         -6.8610     1.7100    -0.6170 c          1 KE9       0.694200
     30 O33         -7.3900     2.0070    -1.6770 o          1 KE9      -0.713500
     31 O34         -7.4580     1.6800     0.4490 o          1 KE9      -0.713500
     32 F35         -0.7870    -0.3470     3.0730 f          1 KE9      -0.180000
     33 H11C         3.5300    -1.2530     1.9040 hc         1 KE9       0.034700
     34 H12C         3.1830    -2.9870     1.7850 hc         1 KE9       0.034700
     35 H13C         4.6450    -2.3290     1.0570 hc         1 KE9       0.034700
     36 H2           2.9970    -2.7890    -0.7060 h1         1 KE9       0.070700
     37 H41C         4.5720    -0.8260    -0.9110 hc         1 KE9       0.050700
     38 H42C         3.1700    -0.8180    -1.9660 hc         1 KE9       0.050700
     39 H7           5.3380     1.6520    -1.8140 ha         1 KE9       0.108000
     40 H8           5.8650     4.1100    -1.8160 ha         1 KE9       0.102000
     41 H9           4.4010     5.7040    -0.5660 ha         1 KE9       0.102000
     42 H10          2.4020     4.8560     0.6920 ha         1 KE9       0.111000
     43 H12          0.9990     2.5160     1.3050 hn         1 KE9       0.356000
     44 H15          1.2560    -0.5950     1.8910 h1         1 KE9       0.043700
     45 H181         0.9150    -3.1150     1.5910 h1         1 KE9       0.043200
     46 H182        -0.4750    -2.5720     0.6810 h1         1 KE9       0.043200
     47 H201        -1.4800    -4.7430     0.2010 hc         1 KE9       0.049200
     48 H202        -0.4490    -6.1020    -0.2950 hc         1 KE9       0.049200
     49 H203        -0.2630    -5.3920     1.3210 hc         1 KE9       0.049200
     50 H211         1.0760    -3.2370    -2.2110 hc         1 KE9       0.049200
     51 H212         0.2650    -4.8060    -2.3590 hc         1 KE9       0.049200
     52 H213        -0.6660    -3.3640    -1.9000 hc         1 KE9       0.049200
     53 H25         -3.2540     0.3120     2.6560 ha         1 KE9       0.140500
     54 H27         -2.7860     0.9050    -1.5970 ha         1 KE9       0.140500
     55 H30         -5.1590     0.9760     1.4110 ha         1 KE9       0.198000
     56 H31         -4.9440     1.4150    -1.6260 ha         1 KE9       0.147000
@<TRIPOS>BOND
     1     1     2 1   
     2     1    33 1   
     3     1    34 1   
     4     1    35 1   
     5     2     3 1   
     6     2    14 1   
     7     2    36 1   
     8     3     4 1   
     9     3    37 1   
    10     3    38 1   
    11     4     5 1   
    12     4    12 2   
    13     5     6 ar  
    14     5    10 ar  
    15     6     7 ar  
    16     6    39 1   
    17     7     8 ar  
    18     7    40 1   
    19     8     9 ar  
    20     8    41 1   
    21     9    10 ar  
    22     9    42 1   
    23    10    11 1   
    24    11    12 1   
    25    11    43 1   
    26    12    13 1   
    27    13    14 1   
    28    13    20 1   
    29    13    44 1   
    30    14    15 1   
    31    15    16 1   
    32    15    45 1   
    33    15    46 1   
    34    16    17 1   
    35    16    18 1   
    36    16    19 1   
    37    17    47 1   
    38    17    48 1   
    39    17    49 1   
    40    18    50 1   
    41    18    51 1   
    42    18    52 1   
    43    20    21 ar  
    44    20    25 ar  
    45    21    22 ar  
    46    21    32 1   
    47    22    23 ar  
    48    22    53 1   
    49    23    24 ar  
    50    23    27 1   
    51    24    25 ar  
    52    24    54 1   
    53    25    26 1   
    54    27    28 2   
    55    27    55 1   
    56    28    29 1   
    57    28    56 1   
    58    29    30 1   
    59    29    31 1   
@<TRIPOS>SUBSTRUCTURE
     1 KE9         1 TEMP              0 ****  ****    0 ROOT
