@<TRIPOS>MOLECULE
KEB
   48    50     1     0     0
SMALL
bcc


@<TRIPOS>ATOM
      1 C01         -7.2690    15.5410     4.8540 c3         1 KEB      -0.043800
      2 C02         -6.8450    16.8490     4.2520 ca         1 KEB      -0.139300
      3 C03         -6.5650    16.9590     2.8960 ca         1 KEB      -0.087500
      4 C04         -6.1570    18.1580     2.3190 ca         1 KEB      -0.127300
      5 C05         -5.8750    18.2480     0.8470 c3         1 KEB      -0.034100
      6 C06         -7.0870    18.6900     0.0050 c6         1 KEB       0.038700
      7 C08         -8.5890    20.4370     0.9660 c          1 KEB       0.710500
      8 C10         -9.6170    19.3790     1.3070 c6         1 KEB       0.042700
      9 C11         -9.7580    19.2520     2.8360 c3         1 KEB      -0.041100
     10 C12        -10.8360    18.2810     3.2240 ca         1 KEB      -0.131300
     11 C13        -12.1710    18.6740     3.2760 ca         1 KEB      -0.085000
     12 C14        -13.1770    17.7790     3.6040 ca         1 KEB      -0.193500
     13 C15        -12.8630    16.4520     3.8880 ca         1 KEB       0.142100
     14 C17        -11.5340    16.0400     3.8360 ca         1 KEB      -0.193500
     15 C18        -10.5420    16.9490     3.5050 ca         1 KEB      -0.085000
     16 C20         -8.2130    17.6860     0.1230 c          1 KEB       0.711500
     17 C22         -6.0330    19.2690     3.1450 ca         1 KEB      -0.087500
     18 C23         -6.3050    19.2090     4.5080 ca         1 KEB      -0.139300
     19 C24         -6.1600    20.4220     5.3820 c3         1 KEB      -0.043800
     20 C25         -6.7160    17.9880     5.0510 ca         1 KEB       0.143100
     21 N07         -7.4930    20.0400     0.3130 ns         1 KEB      -0.563900
     22 N19         -9.3530    18.1050     0.6800 ns         1 KEB      -0.559900
     23 O09         -8.7960    21.6000     1.2770 o          1 KEB      -0.637500
     24 O16        -13.7960    15.5370     4.2190 oh         1 KEB      -0.493100
     25 O21         -8.0540    16.5500    -0.2980 o          1 KEB      -0.639500
     26 O26         -6.9980    17.8440     6.3650 oh         1 KEB      -0.496100
     27 H1          -6.5700    15.1990     5.6190 hc         1 KEB       0.044700
     28 H2          -8.2490    15.6100     5.3320 hc         1 KEB       0.044700
     29 H3          -7.3280    14.7690     4.0890 hc         1 KEB       0.044700
     30 H4          -6.6600    16.0750     2.2740 ha         1 KEB       0.137000
     31 H5          -5.5350    17.2850     0.4620 hc         1 KEB       0.064200
     32 H6          -5.0700    18.9610     0.6570 hc         1 KEB       0.064200
     33 H7          -6.7790    18.6670    -1.0440 h1         1 KEB       0.080700
     34 H8         -10.5660    19.7510     0.9110 h1         1 KEB       0.080700
     35 H9          -8.8000    18.9430     3.2570 hc         1 KEB       0.071700
     36 H10         -9.9840    20.2430     3.2340 hc         1 KEB       0.071700
     37 H11        -12.4350    19.7030     3.0600 ha         1 KEB       0.137500
     38 H12        -14.2070    18.1170     3.6420 ha         1 KEB       0.140500
     39 H13        -11.2810    15.0100     4.0580 ha         1 KEB       0.140500
     40 H14         -9.5120    16.6150     3.4680 ha         1 KEB       0.137500
     41 H15         -5.7030    20.2130     2.7270 ha         1 KEB       0.137000
     42 H16         -7.1060    20.7070     5.8500 hc         1 KEB       0.044700
     43 H17         -5.4320    20.2690     6.1830 hc         1 KEB       0.044700
     44 H18         -5.8190    21.2780     4.8030 hc         1 KEB       0.044700
     45 H19         -6.8260    20.7650     0.0850 hn         1 KEB       0.320500
     46 H20        -10.0950    17.4200     0.7390 hn         1 KEB       0.329500
     47 H21        -14.6740    15.9350     4.2140 ho         1 KEB       0.426000
     48 H22         -6.8500    18.6660     6.8430 ho         1 KEB       0.428000
@<TRIPOS>BOND
     1     1     2 1   
     2     1    27 1   
     3     1    28 1   
     4     1    29 1   
     5     2     3 ar  
     6     2    20 ar  
     7     3     4 ar  
     8     3    30 1   
     9     4     5 1   
    10     4    17 ar  
    11     5     6 1   
    12     5    31 1   
    13     5    32 1   
    14     6    16 1   
    15     6    21 1   
    16     6    33 1   
    17     7     8 1   
    18     7    21 1   
    19     7    23 2   
    20     8     9 1   
    21     8    22 1   
    22     8    34 1   
    23     9    10 1   
    24     9    35 1   
    25     9    36 1   
    26    10    11 ar  
    27    10    15 ar  
    28    11    12 ar  
    29    11    37 1   
    30    12    13 ar  
    31    12    38 1   
    32    13    14 ar  
    33    13    24 1   
    34    14    15 ar  
    35    14    39 1   
    36    15    40 1   
    37    16    22 1   
    38    16    25 2   
    39    17    18 ar  
    40    17    41 1   
    41    18    19 1   
    42    18    20 ar  
    43    19    42 1   
    44    19    43 1   
    45    19    44 1   
    46    20    26 1   
    47    21    45 1   
    48    22    46 1   
    49    24    47 1   
    50    26    48 1   
@<TRIPOS>SUBSTRUCTURE
     1 KEB         1 TEMP              0 ****  ****    0 ROOT
