@<TRIPOS>MOLECULE
KEB
   48    50     1     0     0
SMALL
No Charge or Current Charge


@<TRIPOS>ATOM
      1 C01         -7.3340    15.6190     4.9880 c3         1 KEB      -0.043800
      2 C02         -6.8500    16.9170     4.3460 ca         1 KEB      -0.139300
      3 C03         -6.6040    16.9570     2.9600 ca         1 KEB      -0.069500
      4 C04         -6.1610    18.1420     2.3460 ca         1 KEB      -0.127300
      5 C05         -5.8970    18.1740     0.8430 c3         1 KEB      -0.034100
      6 C06         -7.0880    18.7000    -0.0130 c6         1 KEB       0.038700
      7 C08         -8.5100    20.4910     1.1000 c          1 KEB       0.568000
      8 C10         -9.6370    19.4420     1.3380 c6         1 KEB       0.042700
      9 C11         -9.7760    19.1500     2.8590 c3         1 KEB      -0.041100
     10 C12        -10.8820    18.1530     3.1850 ca         1 KEB      -0.131300
     11 C13        -12.2100    18.5950     3.3440 ca         1 KEB      -0.067000
     12 C14        -13.2310    17.6750     3.6420 ca         1 KEB      -0.175500
     13 C15        -12.9290    16.3110     3.7820 ca         1 KEB       0.142100
     14 C17        -11.6100    15.8660     3.6210 ca         1 KEB      -0.175500
     15 C18        -10.5870    16.7820     3.3230 ca         1 KEB      -0.067000
     16 C20         -8.2850    17.7050     0.0650 c          1 KEB       0.569000
     17 C22         -5.9570    19.2930     3.1280 ca         1 KEB      -0.069500
     18 C23         -6.2040    19.2750     4.5140 ca         1 KEB      -0.139300
     19 C24         -5.9860    20.5500     5.3270 c3         1 KEB      -0.043800
     20 C25         -6.6510    18.0800     5.1220 ca         1 KEB       0.143100
     21 N07         -7.4300    20.1010     0.3410 ns         1 KEB      -0.496900
     22 N19         -9.4710    18.1810     0.5720 ns         1 KEB      -0.492900
     23 O09         -8.5930    21.6420     1.5000 o          1 KEB      -0.562000
     24 O16        -13.9140    15.4150     4.0700 oh         1 KEB      -0.532100
     25 O21         -8.2170    16.5630    -0.3640 o          1 KEB      -0.564000
     26 O26         -6.8930    18.0450     6.4670 oh         1 KEB      -0.535100
     27 H1          -6.6170    15.2600     5.7370 hc         1 KEB       0.044700
     28 H2          -8.2980    15.7640     5.4890 hc         1 KEB       0.044700
     29 H3          -7.4650    14.8200     4.2490 hc         1 KEB       0.044700
     30 H4          -6.7590    16.0650     2.3570 ha         1 KEB       0.119000
     31 H5          -5.6140    17.1720     0.4960 hc         1 KEB       0.064200
     32 H6          -5.0160    18.7980     0.6460 hc         1 KEB       0.064200
     33 H7          -6.7760    18.6950    -1.0670 h1         1 KEB       0.080700
     34 H8         -10.5650    19.9180     0.9920 h1         1 KEB       0.080700
     35 H9          -8.8230    18.7780     3.2480 hc         1 KEB       0.071700
     36 H10         -9.9590    20.0880     3.3970 hc         1 KEB       0.071700
     37 H11        -12.4510    19.6510     3.2370 ha         1 KEB       0.119500
     38 H12        -14.2520    18.0300     3.7630 ha         1 KEB       0.122500
     39 H13        -11.3770    14.8090     3.7270 ha         1 KEB       0.122500
     40 H14         -9.5680    16.4270     3.1940 ha         1 KEB       0.119500
     41 H15         -5.6100    20.2090     2.6530 ha         1 KEB       0.119000
     42 H16         -6.9140    20.8740     5.8140 hc         1 KEB       0.044700
     43 H17         -5.2250    20.4010     6.1030 hc         1 KEB       0.044700
     44 H18         -5.6460    21.3800     4.6970 hc         1 KEB       0.044700
     45 H19         -6.7480    20.8260     0.1490 hn         1 KEB       0.320500
     46 H20        -10.2390    17.5210     0.5730 hn         1 KEB       0.329500
     47 H21        -14.7630    15.9000     4.1460 ho         1 KEB       0.465000
     48 H22         -6.6940    18.9290     6.8360 ho         1 KEB       0.467000
@<TRIPOS>BOND
     1     1     2 1   
     2     1    27 1   
     3     1    28 1   
     4     1    29 1   
     5     2     3 ar  
     6     2    20 ar  
     7     3     4 ar  
     8     3    30 1   
     9     4     5 1   
    10     4    17 ar  
    11     5     6 1   
    12     5    31 1   
    13     5    32 1   
    14     6    16 1   
    15     6    21 1   
    16     6    33 1   
    17     7     8 1   
    18     7    21 1   
    19     7    23 2   
    20     8     9 1   
    21     8    22 1   
    22     8    34 1   
    23     9    10 1   
    24     9    35 1   
    25     9    36 1   
    26    10    11 ar  
    27    10    15 ar  
    28    11    12 ar  
    29    11    37 1   
    30    12    13 ar  
    31    12    38 1   
    32    13    14 ar  
    33    13    24 1   
    34    14    15 ar  
    35    14    39 1   
    36    15    40 1   
    37    16    22 1   
    38    16    25 2   
    39    17    18 ar  
    40    17    41 1   
    41    18    19 1   
    42    18    20 ar  
    43    19    42 1   
    44    19    43 1   
    45    19    44 1   
    46    20    26 1   
    47    21    45 1   
    48    22    46 1   
    49    24    47 1   
    50    26    48 1   
@<TRIPOS>SUBSTRUCTURE
     1 KEB         1 TEMP              0 ****  ****    0 ROOT
