@<TRIPOS>MOLECULE
KEC
   20    21     1     0     0
SMALL
No Charge or Current Charge


@<TRIPOS>ATOM
      1 C1         107.2540  -177.2040   313.2720 ca         1 KEC      -0.119000
      2 C2        -107.6250  -176.3030   312.2670 ca         1 KEC      -0.034200
      3 C3         108.7630  -175.1370   310.6580 cc         1 KEC      -0.135100
      4 C4        -107.4760  -174.6220   310.7800 cd         1 KEC      -0.149400
      5 C5         106.9150  -173.4730   309.9740 c3         1 KEC       0.065900
      6 C6        -106.0030  -173.8850   308.9000 c1         1 KEC       0.297900
      7 C7         106.7580  -175.3580   311.7960 ca         1 KEC      -0.092800
      8 N1        -105.2640  -174.1870   308.0500 n1         1 KEC      -0.458000
      9 C8         105.4510  -175.2350   312.2870 ca         1 KEC      -0.021000
     10 C9        -105.0450  -176.1280   313.3020 ca         1 KEC      -0.045900
     11 C          105.9460  -177.1120   313.7930 ca         1 KEC       0.154000
     12 Cl        -105.4560  -178.2360   315.0590 cl         1 KEC      -0.173000
     13 N          108.8310  -176.1870   311.5990 na         1 KEC      -0.212700
     14 H1        -107.9500  -177.9530   313.6410 ha         1 KEC       0.133000
     15 H2         109.5920  -174.8580   310.0130 h4         1 KEC       0.219000
     16 H3        -106.3770  -172.7810   310.6330 hc         1 KEC       0.074200
     17 H4         107.7290  -172.8940   309.5250 hc         1 KEC       0.074200
     18 H5        -104.7720  -174.4780   311.9020 ha         1 KEC       0.137000
     19 H6         109.6430  -176.7750   311.7650 hn         1 KEC       0.358000
     20 Br        -103.2620  -175.9870   313.9960 br         1 KEC      -0.072100
@<TRIPOS>BOND
     1     1     2 ar  
     2     1    11 ar  
     3     1    14 1   
     4     2     7 ar  
     5     2    13 1   
     6     3     4 2   
     7     3    13 1   
     8     3    15 1   
     9     4     5 1   
    10     4     7 1   
    11     5     6 1   
    12     5    16 1   
    13     5    17 1   
    14     6     8 3   
    15     7     9 ar  
    16     9    10 ar  
    17     9    18 1   
    18    10    11 ar  
    19    10    20 1   
    20    11    12 1   
    21    13    19 1   
@<TRIPOS>SUBSTRUCTURE
     1 KEC         1 TEMP              0 ****  ****    0 ROOT
