@<TRIPOS>MOLECULE
KEC
   20    21     1     0     0
SMALL
bcc


@<TRIPOS>ATOM
      1 C1        -107.2480  -177.2010   313.2690 ca         1 KEC      -0.137000
      2 C2        -107.6260  -176.3090   312.2720 ca         1 KEC      -0.034200
      3 C3        -108.7110  -175.1510   310.7170 cc         1 KEC      -0.085100
      4 C4        -107.4650  -174.5950   310.7770 cd         1 KEC      -0.149400
      5 C5        -106.9600  -173.4500   309.9600 c3         1 KEC       0.065900
      6 C6        -105.9710  -173.8820   308.9780 c1         1 KEC       0.208700
      7 C7        -106.7450  -175.3280   311.7710 ca         1 KEC      -0.092800
      8 N1        -105.1920  -174.2390   308.2100 n1         1 KEC      -0.368800
      9 C8        -105.4470  -175.2500   312.2770 ca         1 KEC      -0.039000
     10 C9        -105.0630  -176.1390   313.2620 ca         1 KEC      -0.045900
     11 C         -105.9610  -177.1030   313.7580 ca         1 KEC       0.062400
     12 CL        -105.4740  -178.1970   315.0010 cl         1 KEC      -0.081400
     13 N         -108.8080  -176.1750   311.6120 na         1 KEC      -0.162400
     14 H1        -107.9310  -177.9470   313.6520 ha         1 KEC       0.151000
     15 H2        -109.5470  -174.8840   310.0900 h4         1 KEC       0.169000
     16 H3        -106.4960  -172.6830   310.5860 hc         1 KEC       0.074200
     17 H4        -107.7780  -172.9670   309.4250 hc         1 KEC       0.074200
     18 H5        -104.7520  -174.5080   311.9040 ha         1 KEC       0.155000
     19 H6        -109.6300  -176.7380   311.7580 hn         1 KEC       0.307700
     20 BR        -103.3050  -176.0470   313.9320 br         1 KEC      -0.072100
@<TRIPOS>BOND
     1     1     2 ar  
     2     1    11 ar  
     3     1    14 1   
     4     2     7 ar  
     5     2    13 1   
     6     3     4 2   
     7     3    13 1   
     8     3    15 1   
     9     4     5 1   
    10     4     7 1   
    11     5     6 1   
    12     5    16 1   
    13     5    17 1   
    14     6     8 3   
    15     7     9 ar  
    16     9    10 ar  
    17     9    18 1   
    18    10    11 ar  
    19    10    20 1   
    20    11    12 1   
    21    13    19 1   
@<TRIPOS>SUBSTRUCTURE
     1 KEC         1 TEMP              0 ****  ****    0 ROOT
