@<TRIPOS>MOLECULE
KED
   24    25     1     0     0
SMALL
No Charge or Current Charge


@<TRIPOS>ATOM
      1 C02         -0.9500    -2.3640     0.7430 c          1 KED       0.568200
      2 C03          0.1540    -1.4080     0.8660 cc         1 KED      -0.358200
      3 C04          0.0370    -0.0600     0.5840 cd         1 KED       0.123600
      4 C05          1.2350     0.8320     0.7910 c3         1 KED      -0.349200
      5 C10         -1.2820     0.4520     0.1370 ca         1 KED      -0.078800
      6 C11         -1.5120     1.8100    -0.1820 ca         1 KED      -0.034000
      7 C12         -2.7880     2.2380    -0.5930 ca         1 KED      -0.185000
      8 C13         -3.8460     1.3220    -0.6950 ca         1 KED      -0.101000
      9 C14         -3.6270    -0.0300    -0.3870 ca         1 KED      -0.198000
     10 C15         -2.3540    -0.4570     0.0240 ca         1 KED       0.082600
     11 N16         -2.1280    -1.8060     0.3300 ns         1 KED      -0.387100
     12 O01         -0.8470    -3.5540     0.9880 o          1 KED      -0.630000
     13 O07          2.8400    -0.1910    -1.1400 o          1 KED      -0.913500
     14 O08          1.5130     1.7780    -1.7440 o          1 KED      -0.913500
     15 O09          3.4310     2.0060    -0.2480 o          1 KED      -0.913500
     16 P06          2.3090     1.1200    -0.6700 p5         1 KED       1.277500
     17 H1           1.0880    -1.8410     1.1980 ha         1 KED       0.268000
     18 H2           0.9380     1.8110     1.1800 hc         1 KED       0.034700
     19 H3           1.8940     0.4060     1.5550 hc         1 KED       0.034700
     20 H4          -0.7110     2.5400    -0.1210 ha         1 KED       0.136000
     21 H5          -2.9540     3.2850    -0.8360 ha         1 KED       0.089000
     22 H6          -4.8300     1.6570    -1.0140 ha         1 KED       0.077000
     23 H7          -4.4440    -0.7420    -0.4690 ha         1 KED       0.085000
     24 H8          -2.9120    -2.4360     0.2360 hn         1 KED       0.286500
@<TRIPOS>BOND
     1     1     2 1   
     2     1    11 1   
     3     1    12 2   
     4     2     3 2   
     5     2    17 1   
     6     3     4 1   
     7     3     5 1   
     8     4    16 1   
     9     4    18 1   
    10     4    19 1   
    11     5     6 ar  
    12     5    10 ar  
    13     6     7 ar  
    14     6    20 1   
    15     7     8 ar  
    16     7    21 1   
    17     8     9 ar  
    18     8    22 1   
    19     9    10 ar  
    20     9    23 1   
    21    10    11 1   
    22    11    24 1   
    23    13    16 1   
    24    14    16 1   
    25    15    16 1   
@<TRIPOS>SUBSTRUCTURE
     1 KED         1 TEMP              0 ****  ****    0 ROOT
