@<TRIPOS>MOLECULE
KED
   24    25     1     0     0
SMALL
abcg2


@<TRIPOS>ATOM
      1 C02         -0.8310    -2.2540     0.3820 c          1 KED       0.568200
      2 C03          0.2110    -1.2680     0.5120 cc         1 KED      -0.358200
      3 C04          0.0030     0.0710     0.4050 cd         1 KED       0.123600
      4 C05          1.1430     1.0150     0.5790 c3         1 KED      -0.349200
      5 C10         -1.3460     0.5380     0.1300 ca         1 KED      -0.078800
      6 C11         -1.6970     1.8910    -0.0030 ca         1 KED      -0.034000
      7 C12         -2.9940     2.2810    -0.2560 ca         1 KED      -0.185000
      8 C13         -3.9960     1.3170    -0.3840 ca         1 KED      -0.101000
      9 C14         -3.6900    -0.0200    -0.2590 ca         1 KED      -0.198000
     10 C15         -2.3720    -0.4150    -0.0040 ca         1 KED       0.082600
     11 N16         -2.0770    -1.7460     0.1210 ns         1 KED      -0.387100
     12 O01         -0.6620    -3.4690     0.4860 o          1 KED      -0.630000
     13 O07          3.2430    -0.6350    -0.0380 o          1 KED      -0.913500
     14 O08          2.0910     0.6570    -1.9440 o          1 KED      -0.913500
     15 O09          3.5360     1.9060    -0.2230 o          1 KED      -0.913500
     16 P06          2.6470     0.6940    -0.5200 p5         1 KED       1.277500
     17 H1           1.2150    -1.6300     0.6910 ha         1 KED       0.268000
     18 H2           0.8380     2.0450     0.3990 hc         1 KED       0.034700
     19 H3           1.4740     0.9780     1.6210 hc         1 KED       0.034700
     20 H4          -0.9360     2.6520     0.0950 ha         1 KED       0.136000
     21 H5          -3.2330     3.3310    -0.3540 ha         1 KED       0.089000
     22 H6          -5.0170     1.6150    -0.5810 ha         1 KED       0.077000
     23 H7          -4.4640    -0.7720    -0.3530 ha         1 KED       0.085000
     24 H8          -2.8310    -2.4130     0.0300 hn         1 KED       0.286500
@<TRIPOS>BOND
     1     1     2 1   
     2     1    11 1   
     3     1    12 2   
     4     2     3 2   
     5     2    17 1   
     6     3     4 1   
     7     3     5 1   
     8     4    16 1   
     9     4    18 1   
    10     4    19 1   
    11     5     6 ar  
    12     5    10 ar  
    13     6     7 ar  
    14     6    20 1   
    15     7     8 ar  
    16     7    21 1   
    17     8     9 ar  
    18     8    22 1   
    19     9    10 ar  
    20     9    23 1   
    21    10    11 1   
    22    11    24 1   
    23    13    16 1   
    24    14    16 1   
    25    15    16 1   
@<TRIPOS>SUBSTRUCTURE
     1 KED         1 TEMP              0 ****  ****    0 ROOT
