@<TRIPOS>MOLECULE
KEE
   40    43     1     0     0
SMALL
No Charge or Current Charge


@<TRIPOS>ATOM
      1 C1           2.7500    -1.8850     0.4510 c          1 KEE       0.633100
      2 C2           1.5840    -1.2630    -0.2810 cx         1 KEE      -0.227700
      3 C3           0.7610    -0.1940     0.4160 cx         1 KEE      -0.041400
      4 C4           1.6790     0.1830    -0.7300 cx         1 KEE      -0.031400
      5 C5          -0.7440    -0.1240     0.2950 ca         1 KEE      -0.041300
      6 C6          -1.5090     0.3000     1.3980 ca         1 KEE      -0.105000
      7 C7          -2.9090     0.3770     1.3140 ca         1 KEE      -0.085000
      8 C8          -3.5800     0.0310     0.1220 ca         1 KEE      -0.117500
      9 C9          -2.8130    -0.3940    -0.9840 ca         1 KEE      -0.085000
     10 C10         -1.4120    -0.4700    -0.8980 ca         1 KEE      -0.105000
     11 C11          2.9200     1.0090    -0.5210 ca         1 KEE      -0.059300
     12 C12          4.0720     0.7500    -1.2880 ca         1 KEE      -0.091500
     13 C13          5.2360     1.5170    -1.1060 ca         1 KEE      -0.106500
     14 C14          5.2520     2.5560    -0.1600 ca         1 KEE      -0.103000
     15 C15          4.1030     2.8290     0.5990 ca         1 KEE      -0.106500
     16 C16          2.9390     2.0610     0.4180 ca         1 KEE      -0.091500
     17 C17         -5.0450     0.1180     0.0520 cc         1 KEE       0.160500
     18 O18         -5.8080     0.5210     1.0970 os         1 KEE      -0.259000
     19 C19         -7.0760     0.4490     0.5940 cc         1 KEE       0.434900
     20 N20         -7.1480     0.0350    -0.6710 nd         1 KEE      -0.673000
     21 C21         -5.8300    -0.1830    -1.0300 cd         1 KEE       0.236900
     22 O22          2.8710    -1.8570     1.6690 o          1 KEE      -0.556100
     23 N23          3.6540    -2.5300    -0.3830 ns         1 KEE      -0.382400
     24 O24          4.9490    -2.9610     0.1040 oh         1 KEE      -0.429100
     25 H2           1.0490    -1.9470    -0.9340 hc         1 KEE       0.088700
     26 H23          3.5690    -2.4070    -1.3910 hn         1 KEE       0.329500
     27 H3           1.0960     0.0910     1.4110 hc         1 KEE       0.110700
     28 H4           1.2010     0.4290    -1.6750 hc         1 KEE       0.087700
     29 H6          -1.0190     0.5730     2.3300 ha         1 KEE       0.115500
     30 H10         -0.8520    -0.8000    -1.7690 ha         1 KEE       0.115500
     31 H7          -3.4720     0.7080     2.1840 ha         1 KEE       0.122500
     32 H9          -3.2910    -0.6690    -1.9210 ha         1 KEE       0.122500
     33 H12          4.0660    -0.0460    -2.0290 ha         1 KEE       0.110000
     34 H16          2.0540     2.2890     1.0050 ha         1 KEE       0.110000
     35 H13          6.1230     1.3080    -1.7000 ha         1 KEE       0.113000
     36 H14          6.1530     3.1500    -0.0200 ha         1 KEE       0.113000
     37 H15          4.1120     3.6370     1.3270 ha         1 KEE       0.113000
     38 H21         -5.5450    -0.5310    -2.0150 h4         1 KEE       0.049100
     39 H19         -7.9010     0.7260     1.2420 h5         1 KEE       0.084100
     40 H24          5.0110    -3.8980    -0.2010 ho         1 KEE       0.448000
@<TRIPOS>BOND
     1     1     2 1   
     2     1    22 2   
     3     1    23 1   
     4     2     3 1   
     5     2     4 1   
     6     2    25 1   
     7     3     4 1   
     8     3     5 1   
     9     3    27 1   
    10     4    11 1   
    11     4    28 1   
    12     5     6 ar  
    13     5    10 ar  
    14     6     7 ar  
    15     6    29 1   
    16     7     8 ar  
    17     7    31 1   
    18     8     9 ar  
    19     8    17 1   
    20     9    10 ar  
    21     9    32 1   
    22    10    30 1   
    23    11    12 ar  
    24    11    16 ar  
    25    12    13 ar  
    26    12    33 1   
    27    13    14 ar  
    28    13    35 1   
    29    14    15 ar  
    30    14    36 1   
    31    15    16 ar  
    32    15    37 1   
    33    16    34 1   
    34    17    18 1   
    35    17    21 2   
    36    18    19 1   
    37    19    20 2   
    38    19    39 1   
    39    20    21 1   
    40    21    38 1   
    41    23    24 1   
    42    23    26 1   
    43    24    40 1   
@<TRIPOS>SUBSTRUCTURE
     1 KEE         1 TEMP              0 ****  ****    0 ROOT
