@<TRIPOS>MOLECULE
KEE
   40    43     1     0     0
SMALL
abcg2


@<TRIPOS>ATOM
      1 C1           2.8170    -1.7790     0.2640 c          1 KEE       0.633100
      2 C2           1.6610    -1.1450    -0.4300 cx         1 KEE      -0.227700
      3 C3           0.8270    -0.1620     0.3480 cx         1 KEE      -0.041400
      4 C4           1.7180     0.3300    -0.7450 cx         1 KEE      -0.031400
      5 C5          -0.6500    -0.1300     0.2260 ca         1 KEE      -0.041300
      6 C6          -1.4160     0.2680     1.3180 ca         1 KEE      -0.105000
      7 C7          -2.7990     0.3250     1.2490 ca         1 KEE      -0.085000
      8 C8          -3.4610    -0.0210     0.0720 ca         1 KEE      -0.117500
      9 C9          -2.6960    -0.4210    -1.0270 ca         1 KEE      -0.085000
     10 C10         -1.3170    -0.4730    -0.9500 ca         1 KEE      -0.105000
     11 C11          2.9330     1.1500    -0.4800 ca         1 KEE      -0.059300
     12 C12          4.0400     1.0180    -1.3150 ca         1 KEE      -0.091500
     13 C13          5.1710     1.7980    -1.1210 ca         1 KEE      -0.106500
     14 C14          5.2070     2.7280    -0.0890 ca         1 KEE      -0.103000
     15 C15          4.1060     2.8690     0.7440 ca         1 KEE      -0.106500
     16 C16          2.9760     2.0850     0.5470 ca         1 KEE      -0.091500
     17 C17         -4.9070     0.0210    -0.0360 cc         1 KEE       0.160500
     18 O18         -5.6340     0.4420     1.0300 os         1 KEE      -0.259000
     19 C19         -6.9120     0.3780     0.6450 cc         1 KEE       0.434900
     20 N20         -7.0720    -0.0420    -0.5590 nd         1 KEE      -0.673000
     21 C21         -5.7960    -0.2780    -1.0170 cd         1 KEE       0.236900
     22 O22          3.3260    -1.3360     1.2760 o          1 KEE      -0.556100
     23 N23          3.2200    -2.9170    -0.3430 ns         1 KEE      -0.382400
     24 O24          4.3910    -3.5000     0.0410 oh         1 KEE      -0.429100
     25 H2           1.1520    -1.7630    -1.1610 hc         1 KEE       0.088700
     26 H23          2.9290    -3.1450    -1.2830 hn         1 KEE       0.329500
     27 H3           1.1900     0.0200     1.3550 hc         1 KEE       0.110700
     28 H4           1.2140     0.5840    -1.6740 hc         1 KEE       0.087700
     29 H6          -0.9250     0.5430     2.2440 ha         1 KEE       0.115500
     30 H10         -0.7660    -0.7880    -1.8280 ha         1 KEE       0.115500
     31 H7          -3.3520     0.6410     2.1240 ha         1 KEE       0.122500
     32 H9          -3.1780    -0.6980    -1.9560 ha         1 KEE       0.122500
     33 H12          4.0200     0.2950    -2.1230 ha         1 KEE       0.110000
     34 H16          2.1210     2.2070     1.2020 ha         1 KEE       0.110000
     35 H13          6.0250     1.6810    -1.7760 ha         1 KEE       0.113000
     36 H14          6.0880     3.3370     0.0650 ha         1 KEE       0.113000
     37 H15          4.1230     3.5920     1.5490 ha         1 KEE       0.113000
     38 H21         -5.6040    -0.6450    -2.0120 h4         1 KEE       0.049100
     39 H19         -7.6650     0.6750     1.3580 h5         1 KEE       0.084100
     40 H24          4.1440    -4.2550     0.5910 ho         1 KEE       0.448000
@<TRIPOS>BOND
     1     1     2 1   
     2     1    22 2   
     3     1    23 1   
     4     2     3 1   
     5     2     4 1   
     6     2    25 1   
     7     3     4 1   
     8     3     5 1   
     9     3    27 1   
    10     4    11 1   
    11     4    28 1   
    12     5     6 ar  
    13     5    10 ar  
    14     6     7 ar  
    15     6    29 1   
    16     7     8 ar  
    17     7    31 1   
    18     8     9 ar  
    19     8    17 1   
    20     9    10 ar  
    21     9    32 1   
    22    10    30 1   
    23    11    12 ar  
    24    11    16 ar  
    25    12    13 ar  
    26    12    33 1   
    27    13    14 ar  
    28    13    35 1   
    29    14    15 ar  
    30    14    36 1   
    31    15    16 ar  
    32    15    37 1   
    33    16    34 1   
    34    17    18 1   
    35    17    21 2   
    36    18    19 1   
    37    19    20 2   
    38    19    39 1   
    39    20    21 1   
    40    21    38 1   
    41    23    24 1   
    42    23    26 1   
    43    24    40 1   
@<TRIPOS>SUBSTRUCTURE
     1 KEE         1 TEMP              0 ****  ****    0 ROOT
