@<TRIPOS>MOLECULE
KEF
   44    46     1     0     0
SMALL
abcg2


@<TRIPOS>ATOM
      1 C14          3.9220     1.9790     0.7210 cc         1 KEF       0.087700
      2 O15          2.9760     2.0720     1.6810 os         1 KEF      -0.209000
      3 C16          2.9450     3.3490     2.0990 cc         1 KEF       0.153900
      4 C17          3.8610     4.0870     1.4230 cd         1 KEF      -0.212000
      5 C19          4.5020     3.1940     0.5210 cd         1 KEF      -0.134000
      6 C18          5.9540    -0.8830    -2.2940 c3         1 KEF       0.155900
      7 N16          4.9590     0.5150    -0.7960 n2         1 KEF      -0.306700
      8 C4          -3.1280    -2.4780     1.1760 c          1 KEF       0.731000
      9 C11          3.2720    -0.4590     0.6990 c          1 KEF       0.521800
     10 C13          4.1010     0.6720     0.1300 ce         1 KEF       0.288300
     11 C2          -2.0870     0.7930     0.4040 c2         1 KEF      -0.108400
     12 C3          -2.8280    -0.2420     0.0000 c2         1 KEF      -0.085400
     13 C5          -2.3630    -1.6770     0.0740 c6         1 KEF      -0.011100
     14 C6          -0.2030    -0.9890     1.2620 cy         1 KEF       0.223700
     15 C7           1.0870    -1.5180     0.5670 cy         1 KEF      -0.000300
     16 C8           0.1110    -2.0780    -0.4790 c          1 KEF       0.559000
     17 N10          2.0700    -0.5970     0.1120 ns         1 KEF      -0.454900
     18 N5          -0.9480    -1.7120     0.2720 nj         1 KEF      -0.346800
     19 O4A         -4.3590    -2.5280     1.0170 o          1 KEF      -0.699500
     20 O4B         -2.4450    -2.9770     2.0800 o          1 KEF      -0.699500
     21 O12          3.6870    -1.1370     1.6170 o          1 KEF      -0.571100
     22 S1          -0.4690     0.7980     1.0860 ss         1 KEF      -0.412600
     23 O3          -4.3300     1.3020    -1.0240 os         1 KEF      -0.472100
     24 C31         -5.5250     1.6810    -1.4910 c          1 KEF       0.640100
     25 O31         -6.4750     0.9350    -1.6030 o          1 KEF      -0.541000
     26 N31         -5.5110     2.9780    -1.8440 nt         1 KEF      -0.605000
     27 H16          2.2330     3.5890     2.8710 h4         1 KEF       0.060100
     28 H17          4.0570     5.1380     1.5510 ha         1 KEF       0.138000
     29 H19          5.2860     3.4210    -0.1830 ha         1 KEF       0.147000
     30 H183         5.6980    -0.2480    -3.1440 h1         1 KEF       0.039700
     31 H182         5.9270    -1.9250    -2.6040 h1         1 KEF       0.039700
     32 H181         6.9600    -0.6380    -1.9490 h1         1 KEF       0.039700
     33 H3'2        -4.9660    -0.2820     0.1530 h1         1 KEF       0.081700
     34 H3'1        -4.3360    -0.7340    -1.4250 h1         1 KEF       0.081700
     35 H2          -2.4560     1.8060     0.3060 h4         1 KEF       0.191000
     36 H4          -2.5700    -2.1560    -0.8890 h1         1 KEF       0.080700
     37 H6          -0.3730    -1.3070     2.2880 h2         1 KEF       0.130700
     38 H7           1.5580    -2.3060     1.1540 h1         1 KEF       0.116700
     39 H10          1.8150     0.0560    -0.6130 hn         1 KEF       0.333500
     40 HN31        -4.7470     3.5810    -1.5900 hn         1 KEF       0.315500
     41 HN32        -6.3780     3.4180    -2.1000 hn         1 KEF       0.315500
     42 O17          5.0020    -0.7610    -1.2500 os         1 KEF      -0.291000
     43 C9          -4.2000    -0.0450    -0.5860 c3         1 KEF       0.223800
     44 O9           0.2140    -2.6280    -1.5470 o          1 KEF      -0.534000
@<TRIPOS>BOND
     1     1     2 1   
     2     1     5 2   
     3     1    10 1   
     4     2     3 1   
     5     3     4 2   
     6     3    27 1   
     7     4     5 1   
     8     4    28 1   
     9     5    29 1   
    10     6    30 1   
    11     6    31 1   
    12     6    32 1   
    13     6    42 1   
    14     7    10 2   
    15     7    42 1   
    16     8    13 1   
    17     8    19 1   
    18     8    20 1   
    19     9    10 1   
    20     9    17 1   
    21     9    21 2   
    22    11    12 2   
    23    11    22 1   
    24    11    35 1   
    25    12    13 1   
    26    12    43 1   
    27    13    18 1   
    28    13    36 1   
    29    14    15 1   
    30    14    18 1   
    31    14    22 1   
    32    14    37 1   
    33    15    16 1   
    34    15    17 1   
    35    15    38 1   
    36    16    18 1   
    37    16    44 2   
    38    17    39 1   
    39    23    24 1   
    40    23    43 1   
    41    24    25 2   
    42    24    26 1   
    43    26    40 1   
    44    26    41 1   
    45    33    43 1   
    46    34    43 1   
@<TRIPOS>SUBSTRUCTURE
     1 KEF         1 TEMP              0 ****  ****    0 ROOT
