@<TRIPOS>MOLECULE
KEF
   44    46     1     0     0
SMALL
No Charge or Current Charge


@<TRIPOS>ATOM
      1 C14          4.8360     2.0770     1.2950 cc         1 KEF       0.087700
      2 O15          4.5940     2.3050     2.6370 os         1 KEF      -0.209000
      3 C16          5.5180     3.2280     3.0770 cc         1 KEF       0.153900
      4 C17          6.3320     3.5800     2.0380 cd         1 KEF      -0.212000
      5 C19          5.9020     2.8530     0.9100 cd         1 KEF      -0.134000
      6 C18          5.0350    -0.3850    -2.5070 c3         1 KEF       0.155900
      7 N16          4.2980     0.9820    -0.7620 n2         1 KEF      -0.306700
      8 C4          -3.1120    -2.7730     0.1750 c          1 KEF       0.731000
      9 C11          2.8390     0.3990     1.1300 c          1 KEF       0.521800
     10 C13          4.0240     1.1340     0.5050 ce         1 KEF       0.288300
     11 C2          -2.4960     0.9490    -0.1390 c2         1 KEF      -0.108400
     12 C3          -3.1440    -0.2240    -0.3230 c2         1 KEF      -0.085400
     13 C5          -2.4230    -1.5690    -0.5370 c6         1 KEF      -0.011100
     14 C6          -0.4410    -0.4380     0.7870 cy         1 KEF       0.223700
     15 C7           0.9380    -1.1740     0.6470 cy         1 KEF      -0.000300
     16 C8           0.1980    -2.0430    -0.4210 c          1 KEF       0.559000
     17 N10          2.1330    -0.4320     0.2720 ns         1 KEF      -0.454900
     18 N5          -1.0190    -1.4330    -0.1190 nj         1 KEF      -0.346800
     19 O4A         -3.5710    -3.6660    -0.5240 o          1 KEF      -0.699500
     20 O4B         -3.1860    -2.7610     1.3970 o          1 KEF      -0.699500
     21 O12          2.4890     0.5040     2.3020 o          1 KEF      -0.571100
     22 S1          -0.7050     1.1620    -0.1250 ss         1 KEF      -0.412600
     23 O3          -5.1670     0.8390    -1.0940 os         1 KEF      -0.472100
     24 C31         -6.5130     0.9510    -1.2340 c          1 KEF       0.640100
     25 O31         -7.3500     0.1790    -0.8040 o          1 KEF      -0.541000
     26 N31         -6.8080     2.0580    -1.9290 nt         1 KEF      -0.605000
     27 H16          5.4820     3.5330     4.1140 h4         1 KEF       0.060100
     28 H17          7.1530     4.2880     2.0820 ha         1 KEF       0.138000
     29 H19          6.3330     2.8930    -0.0860 ha         1 KEF       0.147000
     30 H183         4.1580    -0.1350    -3.1190 h1         1 KEF       0.039700
     31 H182         5.3610    -1.3970    -2.7760 h1         1 KEF       0.039700
     32 H181         5.8450     0.3120    -2.7580 h1         1 KEF       0.039700
     33 H3'2        -5.0620    -0.3140     0.6560 h1         1 KEF       0.081700
     34 H3'1        -4.9920    -1.2280    -0.8630 h1         1 KEF       0.081700
     35 H2          -3.0550     1.8800    -0.0330 h4         1 KEF       0.191000
     36 H4          -2.4390    -1.8000    -1.6100 h1         1 KEF       0.080700
     37 H6          -0.8860    -0.3930     1.7880 h2         1 KEF       0.130700
     38 H7           1.1730    -1.7790     1.5290 h1         1 KEF       0.116700
     39 H10          2.4930    -0.4850    -0.6770 hn         1 KEF       0.333500
     40 HN31        -6.0590     2.6490    -2.2540 hn         1 KEF       0.315500
     41 HN32        -7.7720     2.2850    -2.1190 hn         1 KEF       0.315500
     42 O17          4.7180    -0.3190    -1.1060 os         1 KEF      -0.291000
     43 C9          -4.6680    -0.3020    -0.3700 c3         1 KEF       0.223800
     44 O9           0.5130    -2.9310    -1.2020 o          1 KEF      -0.534000
@<TRIPOS>BOND
     1     1     2 1   
     2     1     5 2   
     3     1    10 1   
     4     2     3 1   
     5     3     4 2   
     6     3    27 1   
     7     4     5 1   
     8     4    28 1   
     9     5    29 1   
    10     6    30 1   
    11     6    31 1   
    12     6    32 1   
    13     6    42 1   
    14     7    10 2   
    15     7    42 1   
    16     8    13 1   
    17     8    19 1   
    18     8    20 1   
    19     9    10 1   
    20     9    17 1   
    21     9    21 2   
    22    11    12 2   
    23    11    22 1   
    24    11    35 1   
    25    12    13 1   
    26    12    43 1   
    27    13    18 1   
    28    13    36 1   
    29    14    15 1   
    30    14    18 1   
    31    14    22 1   
    32    14    37 1   
    33    15    16 1   
    34    15    17 1   
    35    15    38 1   
    36    16    18 1   
    37    16    44 2   
    38    17    39 1   
    39    23    24 1   
    40    23    43 1   
    41    24    25 2   
    42    24    26 1   
    43    26    40 1   
    44    26    41 1   
    45    33    43 1   
    46    34    43 1   
@<TRIPOS>SUBSTRUCTURE
     1 KEF         1 TEMP              0 ****  ****    0 ROOT
