@<TRIPOS>MOLECULE
KEH
   42    44     1     0     0
SMALL
abcg2


@<TRIPOS>ATOM
      1 C1          -9.9940    19.4220     2.9870 c3         1 KEH      -0.039100
      2 C11         -8.2320    17.8850     0.3640 c          1 KEH       0.563000
      3 C12         -7.1330    18.9290     0.2960 c6         1 KEH       0.041700
      4 C14         -8.7580    20.6310     1.1620 c          1 KEH       0.561000
      5 C17         -5.9470    18.5410     1.2150 c3         1 KEH      -0.035100
      6 C18         -6.3190    18.4410     2.6680 ca         1 KEH      -0.134300
      7 C19         -6.3640    19.5780     3.4720 ca         1 KEH      -0.035000
      8 C2         -11.0850    18.4420     3.3260 ca         1 KEH      -0.131300
      9 C20         -6.7730    19.4940     4.7980 ca         1 KEH       0.100000
     10 C21         -7.1300    18.2680     5.3650 ca         1 KEH       0.170100
     11 C22         -7.0690    17.1280     4.5630 ca         1 KEH      -0.152000
     12 C23         -6.6780    17.2160     3.2370 ca         1 KEH      -0.050000
     13 C3         -12.4290    18.7960     3.2000 ca         1 KEH      -0.067500
     14 C4         -13.4430    17.8870     3.4720 ca         1 KEH      -0.168500
     15 C5         -13.1210    16.5920     3.8770 ca         1 KEH       0.137100
     16 C6         -11.7870    16.2210     4.0120 ca         1 KEH      -0.168500
     17 C7         -10.7840    17.1430     3.7360 ca         1 KEH      -0.067500
     18 C9          -9.7660    19.5380     1.4630 c6         1 KEH       0.044700
     19 I25         -6.9050    21.2600     5.9530 i          1 KEH      -0.309000
     20 N10         -9.4150    18.2580     0.8690 ns         1 KEH      -0.492900
     21 N13         -7.6090    20.2740     0.5700 ns         1 KEH      -0.499900
     22 O16         -8.0110    16.7440    -0.0430 o          1 KEH      -0.568000
     23 O24         -7.5380    18.1090     6.6480 oh         1 KEH      -0.525100
     24 O8         -14.0760    15.6540     4.1550 oh         1 KEH      -0.537100
     25 H1          -9.0590    19.1180     3.4560 hc         1 KEH       0.071200
     26 H2         -10.2440    20.4180     3.3540 hc         1 KEH       0.071200
     27 H3          -6.7670    18.9050    -0.7320 h1         1 KEH       0.084700
     28 H4          -5.5560    17.5890     0.8570 hc         1 KEH       0.067200
     29 H5          -5.1700    19.2930     1.0690 hc         1 KEH       0.067200
     30 H6          -6.0900    20.5380     3.0580 ha         1 KEH       0.128000
     31 H7          -7.3430    16.1760     5.0000 ha         1 KEH       0.137000
     32 H8          -6.6550    16.3190     2.6330 ha         1 KEH       0.132000
     33 H9         -12.6910    19.8000     2.8870 ha         1 KEH       0.118000
     34 H10        -14.4830    18.1770     3.3740 ha         1 KEH       0.124000
     35 H11        -11.5430    15.2150     4.3310 ha         1 KEH       0.124000
     36 H12         -9.7490    16.8480     3.8450 ha         1 KEH       0.118000
     37 H13        -10.7010    19.8720     1.0060 h1         1 KEH       0.083700
     38 H14        -10.1180    17.5330     0.9150 hn         1 KEH       0.331500
     39 H15         -6.9590    21.0290     0.3920 hn         1 KEH       0.322500
     40 H16         -7.5350    18.9620     7.1120 ho         1 KEH       0.478000
     41 H17        -14.9570    16.0300     4.0250 ho         1 KEH       0.463000
     42 O15         -9.0220    21.7980     1.4490 o          1 KEH      -0.559000
@<TRIPOS>BOND
     1     1     8 1   
     2     1    18 1   
     3     1    25 1   
     4     1    26 1   
     5     2     3 1   
     6     2    20 1   
     7     2    22 2   
     8     3     5 1   
     9     3    21 1   
    10     3    27 1   
    11     4    18 1   
    12     4    21 1   
    13     4    42 2   
    14     5     6 1   
    15     5    28 1   
    16     5    29 1   
    17     6     7 ar  
    18     6    12 ar  
    19     7     9 ar  
    20     7    30 1   
    21     8    13 ar  
    22     8    17 ar  
    23     9    10 ar  
    24     9    19 1   
    25    10    11 ar  
    26    10    23 1   
    27    11    12 ar  
    28    11    31 1   
    29    12    32 1   
    30    13    14 ar  
    31    13    33 1   
    32    14    15 ar  
    33    14    34 1   
    34    15    16 ar  
    35    15    24 1   
    36    16    17 ar  
    37    16    35 1   
    38    17    36 1   
    39    18    20 1   
    40    18    37 1   
    41    20    38 1   
    42    21    39 1   
    43    23    40 1   
    44    24    41 1   
@<TRIPOS>SUBSTRUCTURE
     1 KEH         1 TEMP              0 ****  ****    0 ROOT
