@<TRIPOS>MOLECULE
KEH
   42    44     1     0     0
SMALL
No Charge or Current Charge


@<TRIPOS>ATOM
      1 C1         -10.0420    19.3560     2.9850 c3         1 KEH      -0.039100
      2 C11         -8.3250    17.8810     0.3300 c          1 KEH       0.563000
      3 C12         -7.1590    18.9150     0.2930 c6         1 KEH       0.041700
      4 C14         -8.7030    20.6850     1.2710 c          1 KEH       0.561000
      5 C17         -6.0020    18.4510     1.2260 c3         1 KEH      -0.035100
      6 C18         -6.3500    18.4460     2.7130 ca         1 KEH      -0.134300
      7 C19         -6.2360    19.6250     3.4770 ca         1 KEH      -0.035000
      8 C2         -11.1400    18.3360     3.2660 ca         1 KEH      -0.131300
      9 C20         -6.5610    19.6180     4.8430 ca         1 KEH       0.100000
     10 C21         -6.9920    18.4270     5.4620 ca         1 KEH       0.170100
     11 C22         -7.0970    17.2490     4.7060 ca         1 KEH      -0.152000
     12 C23         -6.7800    17.2570     3.3360 ca         1 KEH      -0.050000
     13 C3         -12.4940    18.7180     3.1890 ca         1 KEH      -0.067500
     14 C4         -13.5100    17.7790     3.4410 ca         1 KEH      -0.168500
     15 C5         -13.1760    16.4550     3.7690 ca         1 KEH       0.137100
     16 C6         -11.8300    16.0700     3.8450 ca         1 KEH      -0.168500
     17 C7         -10.8130    17.0060     3.5950 ca         1 KEH      -0.067500
     18 C9          -9.8090    19.6050     1.4680 c6         1 KEH       0.044700
     19 I25         -6.4040    21.4580     5.9860 i          1 KEH      -0.309000
     20 N10         -9.5530    18.3260     0.7600 ns         1 KEH      -0.492900
     21 N13         -7.5650    20.3120     0.5930 ns         1 KEH      -0.499900
     22 O16         -8.1940    16.7310    -0.0600 o          1 KEH      -0.568000
     23 O24         -7.3130    18.4040     6.7910 oh         1 KEH      -0.525100
     24 O8         -14.1550    15.5390     4.0140 oh         1 KEH      -0.537100
     25 H1          -9.1070    19.0270     3.4490 hc         1 KEH       0.071200
     26 H2         -10.2920    20.3030     3.4790 hc         1 KEH       0.071200
     27 H3          -6.7900    18.8960    -0.7420 h1         1 KEH       0.084700
     28 H4          -5.6660    17.4510     0.9210 hc         1 KEH       0.067200
     29 H5          -5.1320    19.0990     1.0630 hc         1 KEH       0.067200
     30 H6          -5.9020    20.5500     3.0120 ha         1 KEH       0.128000
     31 H7          -7.4280    16.3290     5.1820 ha         1 KEH       0.137000
     32 H8          -6.8680    16.3370     2.7600 ha         1 KEH       0.132000
     33 H9         -12.7600    19.7420     2.9330 ha         1 KEH       0.118000
     34 H10        -14.5510    18.0870     3.3780 ha         1 KEH       0.124000
     35 H11        -11.5730    15.0440     4.0980 ha         1 KEH       0.124000
     36 H12         -9.7720    16.6960     3.6520 ha         1 KEH       0.118000
     37 H13        -10.7250    20.0400     1.0450 h1         1 KEH       0.083700
     38 H14        -10.2960    17.6380     0.7400 hn         1 KEH       0.331500
     39 H15         -6.8980    21.0540     0.4200 hn         1 KEH       0.322500
     40 H16         -7.1750    19.3080     7.1520 ho         1 KEH       0.478000
     41 H17        -15.0250    15.9810     3.9170 ho         1 KEH       0.463000
     42 O15         -8.8440    21.8410     1.6380 o          1 KEH      -0.559000
@<TRIPOS>BOND
     1     1     8 1   
     2     1    18 1   
     3     1    25 1   
     4     1    26 1   
     5     2     3 1   
     6     2    20 1   
     7     2    22 2   
     8     3     5 1   
     9     3    21 1   
    10     3    27 1   
    11     4    18 1   
    12     4    21 1   
    13     4    42 2   
    14     5     6 1   
    15     5    28 1   
    16     5    29 1   
    17     6     7 ar  
    18     6    12 ar  
    19     7     9 ar  
    20     7    30 1   
    21     8    13 ar  
    22     8    17 ar  
    23     9    10 ar  
    24     9    19 1   
    25    10    11 ar  
    26    10    23 1   
    27    11    12 ar  
    28    11    31 1   
    29    12    32 1   
    30    13    14 ar  
    31    13    33 1   
    32    14    15 ar  
    33    14    34 1   
    34    15    16 ar  
    35    15    24 1   
    36    16    17 ar  
    37    16    35 1   
    38    17    36 1   
    39    18    20 1   
    40    18    37 1   
    41    20    38 1   
    42    21    39 1   
    43    23    40 1   
    44    24    41 1   
@<TRIPOS>SUBSTRUCTURE
     1 KEH         1 TEMP              0 ****  ****    0 ROOT
