@<TRIPOS>MOLECULE
KEJ
   42    45     1     0     0
SMALL
No Charge or Current Charge


@<TRIPOS>ATOM
      1 C4          -2.4630     0.0780    -0.1870 ca         1 KEJ      -0.137500
      2 C14          4.0060    -0.1150     0.2450 cc         1 KEJ       0.427500
      3 C5          -2.0250    -1.0150    -0.9660 ca         1 KEJ      -0.071000
      4 C6          -2.5250    -2.3040    -0.7270 ca         1 KEJ       0.072000
      5 C11          1.8550     1.1360    -0.2000 c          1 KEJ       0.659300
      6 C7          -3.4700    -2.5160     0.2860 ca         1 KEJ      -0.058000
      7 C8          -3.9190    -1.4350     1.0650 ca         1 KEJ      -0.201000
      8 C9          -3.4200    -0.1320     0.8340 ca         1 KEJ       0.170100
      9 C10         -4.7860     0.8240     2.6620 c3         1 KEJ       0.145900
     10 C12          2.6460    -0.0510     0.1630 cd         1 KEJ      -0.362800
     11 C13          2.1790    -1.3560     0.4960 cd         1 KEJ       0.416500
     12 N1          -2.7000     2.4400    -0.7740 nc         1 KEJ      -0.484800
     13 N2           0.4920     0.8960    -0.1970 ns         1 KEJ      -0.381100
     14 C3          -1.9220     1.4160    -0.4730 cd         1 KEJ       0.271500
     15 N3           3.1410    -2.2270     0.7800 nc         1 KEJ      -0.573100
     16 O1           2.3370     2.2240    -0.4800 o          1 KEJ      -0.579100
     17 N5           4.9110     0.8840     0.0150 nc         1 KEJ      -0.611000
     18 C15          6.1600     0.4600     0.1910 cd         1 KEJ       0.379900
     19 C16          6.4990    -0.8940     0.5770 cd         1 KEJ      -0.222000
     20 C17          5.5400    -1.8820     0.8010 cc         1 KEJ      -0.035000
     21 N4           4.2380    -1.4260     0.6140 na         1 KEJ       0.116900
     22 C2          -0.5510     1.7710    -0.4890 cd         1 KEJ      -0.046400
     23 C1          -0.4660     3.0920    -0.8150 cc         1 KEJ      -0.180000
     24 N           -1.7970     3.4660    -0.9800 na         1 KEJ       0.136800
     25 C           -2.2840     4.8060    -1.3390 c3         1 KEJ       0.076900
     26 O           -3.8190     0.9450     1.6040 os         1 KEJ      -0.316100
     27 Cl          -1.9630    -3.6550    -1.7030 cl         1 KEJ      -0.205000
     28 H1          -1.3040    -0.8620    -1.7660 ha         1 KEJ       0.137000
     29 H2          -3.8550    -3.5170     0.4680 ha         1 KEJ       0.128000
     30 H3          -4.6490    -1.6300     1.8450 ha         1 KEJ       0.122000
     31 H4          -4.4330     0.1310     3.4360 h1         1 KEJ       0.042367
     32 H5          -4.9560     1.8000     3.1330 h1         1 KEJ       0.042367
     33 H6          -5.7460     0.4620     2.2730 h1         1 KEJ       0.042367
     34 H7           1.1530    -1.7010     0.5400 h4         1 KEJ       0.054800
     35 H8           0.2460    -0.0490     0.0610 hn         1 KEJ       0.325500
     36 H9           6.9160     1.2150     0.0210 h4         1 KEJ       0.036100
     37 H10          7.5480    -1.1440     0.6950 ha         1 KEJ       0.145000
     38 H11          5.7040    -2.9120     1.0900 h4         1 KEJ       0.166000
     39 H12          0.3680     3.7720    -0.9360 h4         1 KEJ       0.180000
     40 H13         -2.9490     5.1770    -0.5510 h1         1 KEJ       0.056367
     41 H14         -1.4350     5.4910    -1.4500 h1         1 KEJ       0.056367
     42 H15         -2.8340     4.7540    -2.2860 h1         1 KEJ       0.056367
@<TRIPOS>BOND
     1     1     3 ar  
     2     1     8 ar  
     3     1    14 1   
     4     2    10 2   
     5     2    17 1   
     6     2    21 1   
     7     3     4 ar  
     8     3    28 1   
     9     4     6 ar  
    10     4    27 1   
    11     5    10 1   
    12     5    13 1   
    13     5    16 2   
    14     6     7 ar  
    15     6    29 1   
    16     7     8 ar  
    17     7    30 1   
    18     8    26 1   
    19     9    26 1   
    20     9    31 1   
    21     9    32 1   
    22     9    33 1   
    23    10    11 1   
    24    11    15 2   
    25    11    34 1   
    26    12    14 2   
    27    12    24 1   
    28    13    22 1   
    29    13    35 1   
    30    14    22 1   
    31    15    21 1   
    32    17    18 2   
    33    18    19 1   
    34    18    36 1   
    35    19    20 2   
    36    19    37 1   
    37    20    21 1   
    38    20    38 1   
    39    22    23 2   
    40    23    24 1   
    41    23    39 1   
    42    24    25 1   
    43    25    40 1   
    44    25    41 1   
    45    25    42 1   
@<TRIPOS>SUBSTRUCTURE
     1 KEJ         1 TEMP              0 ****  ****    0 ROOT
