@<TRIPOS>MOLECULE
KEJ
   42    45     1     0     0
SMALL
bcc


@<TRIPOS>ATOM
      1 C4          -2.5030     0.0880    -0.0890 ca         1 KEJ      -0.137500
      2 C14          4.0240    -0.1200     0.1700 cc         1 KEJ       0.427500
      3 C5          -1.9920    -1.0280    -0.7440 ca         1 KEJ      -0.089000
      4 C6          -2.4800    -2.2950    -0.4680 ca         1 KEJ      -0.019600
      5 C11          1.7940     1.0240    -0.2940 c          1 KEJ       0.726300
      6 C7          -3.5000    -2.4690     0.4480 ca         1 KEJ      -0.076000
      7 C8          -4.0270    -1.3640     1.1010 ca         1 KEJ      -0.219000
      8 C9          -3.5350    -0.0850     0.8500 ca         1 KEJ       0.170100
      9 C10         -4.9880     0.8960     2.4480 c3         1 KEJ       0.122700
     10 C12          2.6400    -0.1350    -0.0060 cd         1 KEJ      -0.362800
     11 C13          2.2980    -1.4920     0.0990 cd         1 KEJ       0.416500
     12 N1          -2.6380     2.4680    -0.6990 nc         1 KEJ      -0.484800
     13 N2           0.4740     0.8350    -0.0460 ns         1 KEJ      -0.448100
     14 C3          -1.9190     1.4050    -0.3720 cd         1 KEJ       0.336800
     15 N3           3.3360    -2.2740     0.3210 nc         1 KEJ      -0.573100
     16 O1           2.2360     2.0740    -0.7350 o          1 KEJ      -0.579100
     17 N5           4.9350     0.8580     0.1900 nc         1 KEJ      -0.611000
     18 C15          6.1780     0.5100     0.4000 cd         1 KEJ       0.445200
     19 C16          6.5980    -0.8240     0.6020 cd         1 KEJ      -0.305300
     20 C17          5.6590    -1.8060     0.5830 cc         1 KEJ      -0.002300
     21 N4           4.3780    -1.4400     0.3680 na         1 KEJ       0.066200
     22 C2          -0.5440     1.7260    -0.3660 cd         1 KEJ      -0.111700
     23 C1          -0.4910     3.0570    -0.7220 cc         1 KEJ      -0.147300
     24 N           -1.7710     3.4390    -0.9120 na         1 KEJ       0.115400
     25 C           -2.2340     4.7590    -1.2690 c3         1 KEJ       0.047600
     26 O           -3.9760     1.0190     1.4660 os         1 KEJ      -0.292900
     27 CL          -1.7970    -3.6650    -1.2840 cl         1 KEJ      -0.113400
     28 H1          -1.2150    -0.8990    -1.4860 ha         1 KEJ       0.155000
     29 H2          -3.8910    -3.4540     0.6610 ha         1 KEJ       0.146000
     30 H3          -4.8220    -1.5240     1.8170 ha         1 KEJ       0.140000
     31 H4          -4.6750     0.2580     3.2780 h1         1 KEJ       0.042367
     32 H5          -5.1710     1.8990     2.8250 h1         1 KEJ       0.042367
     33 H6          -5.9180     0.5030     2.0290 h1         1 KEJ       0.042367
     34 H7           1.3210    -1.9440    -0.0030 h4         1 KEJ       0.054800
     35 H8           0.1900     0.0000     0.4430 hn         1 KEJ       0.325500
     36 H9           6.9120     1.3070     0.4170 h4         1 KEJ       0.036100
     37 H10          7.6370    -1.0610     0.7680 ha         1 KEJ       0.163000
     38 H11          5.8530    -2.8590     0.7260 h4         1 KEJ       0.184000
     39 H12          0.3310     3.7380    -0.8440 h4         1 KEJ       0.198000
     40 H13         -2.7100     5.2440    -0.4190 h1         1 KEJ       0.056367
     41 H14         -1.3850     5.3570    -1.5870 h1         1 KEJ       0.056367
     42 H15         -2.9450     4.6920    -2.0890 h1         1 KEJ       0.056367
@<TRIPOS>BOND
     1     1     3 ar  
     2     1     8 ar  
     3     1    14 1   
     4     2    10 2   
     5     2    17 1   
     6     2    21 1   
     7     3     4 ar  
     8     3    28 1   
     9     4     6 ar  
    10     4    27 1   
    11     5    10 1   
    12     5    13 1   
    13     5    16 2   
    14     6     7 ar  
    15     6    29 1   
    16     7     8 ar  
    17     7    30 1   
    18     8    26 1   
    19     9    26 1   
    20     9    31 1   
    21     9    32 1   
    22     9    33 1   
    23    10    11 1   
    24    11    15 2   
    25    11    34 1   
    26    12    14 2   
    27    12    24 1   
    28    13    22 1   
    29    13    35 1   
    30    14    22 1   
    31    15    21 1   
    32    17    18 2   
    33    18    19 1   
    34    18    36 1   
    35    19    20 2   
    36    19    37 1   
    37    20    21 1   
    38    20    38 1   
    39    22    23 2   
    40    23    24 1   
    41    23    39 1   
    42    24    25 1   
    43    25    40 1   
    44    25    41 1   
    45    25    42 1   
@<TRIPOS>SUBSTRUCTURE
     1 KEJ         1 TEMP              0 ****  ****    0 ROOT
