@<TRIPOS>MOLECULE
KEK
   34    34     1     0     0
SMALL
No Charge or Current Charge


@<TRIPOS>ATOM
      1 Cl           4.3240    -1.5700     1.0640 cl         1 KEK      -0.213000
      2 C02          4.4100     0.1070     0.5220 ca         1 KEK       0.121000
      3 C03          5.4310     0.9240     1.0390 ca         1 KEK      -0.107000
      4 C04          5.5350     2.2660     0.6400 ca         1 KEK      -0.110000
      5 C05          4.6150     2.7960    -0.2780 ca         1 KEK      -0.109000
      6 C06          3.5920     1.9840    -0.7970 ca         1 KEK      -0.100000
      7 C07          3.4790     0.6330    -0.4060 ca         1 KEK      -0.061300
      8 C08          2.3530    -0.2190    -0.9880 c3         1 KEK      -0.022100
      9 C09          1.1310    -0.2890    -0.0410 c3         1 KEK      -0.186400
     10 C10         -0.0490    -1.1420    -0.5340 c          1 KEK       0.579100
     11 C11         -1.2520    -1.2750     0.4340 c3         1 KEK      -0.124500
     12 C12         -2.5440    -0.7340    -0.1610 c2         1 KEK      -0.231200
     13 C13         -3.4860    -0.0350     0.5180 ce         1 KEK      -0.244200
     14 C14         -4.7610     0.4860    -0.0900 c          1 KEK       0.410300
     15 C15         -5.7630     1.3030     0.8970 c          1 KEK       0.651000
     16 O16         -6.9370     1.4440     0.5560 o          1 KEK      -0.697000
     17 O17         -5.3170     1.7590     1.9470 o          1 KEK      -0.697000
     18 O18         -5.0210     0.2930    -1.2810 o          1 KEK      -0.550100
     19 C19         -1.4270    -2.7370     0.9010 c3         1 KEK      -0.079100
     20 O20         -0.0460    -1.6800    -1.6360 o          1 KEK      -0.522100
     21 H03          6.1420     0.5130     1.7520 ha         1 KEK       0.123000
     22 H04          6.3270     2.8950     1.0430 ha         1 KEK       0.112000
     23 H05          4.6920     3.8360    -0.5860 ha         1 KEK       0.114000
     24 H06          2.8830     2.4080    -1.5060 ha         1 KEK       0.121000
     25 H081         2.0310     0.1920    -1.9530 hc         1 KEK       0.064200
     26 H082         2.7100    -1.2330    -1.2040 hc         1 KEK       0.064200
     27 H091         1.4050    -0.6450     0.9590 hc         1 KEK       0.068200
     28 H092         0.7420     0.7090     0.1950 hc         1 KEK       0.068200
     29 H11         -1.0100    -0.6870     1.3290 hc         1 KEK       0.059700
     30 H12         -2.6830    -0.9580    -1.2230 ha         1 KEK       0.193000
     31 H191        -2.2340    -2.8120     1.6400 hc         1 KEK       0.036033
     32 H192        -1.6750    -3.3910     0.0550 hc         1 KEK       0.036033
     33 H193        -0.5050    -3.1090     1.3640 hc         1 KEK       0.036033
     34 H13         -3.3500     0.1820     1.5770 ha         1 KEK       0.195000
@<TRIPOS>BOND
     1     1     2 1   
     2     2     3 ar  
     3     2     7 ar  
     4     3     4 ar  
     5     3    21 1   
     6     4     5 ar  
     7     4    22 1   
     8     5     6 ar  
     9     5    23 1   
    10     6     7 ar  
    11     6    24 1   
    12     7     8 1   
    13     8     9 1   
    14     8    25 1   
    15     8    26 1   
    16     9    10 1   
    17     9    27 1   
    18     9    28 1   
    19    10    11 1   
    20    10    20 2   
    21    11    12 1   
    22    11    19 1   
    23    11    29 1   
    24    12    13 2   
    25    12    30 1   
    26    13    14 1   
    27    13    34 1   
    28    14    15 1   
    29    14    18 2   
    30    15    16 1   
    31    15    17 1   
    32    19    31 1   
    33    19    32 1   
    34    19    33 1   
@<TRIPOS>SUBSTRUCTURE
     1 KEK         1 TEMP              0 ****  ****    0 ROOT
