@<TRIPOS>MOLECULE
KEK
   34    34     1     0     0
SMALL
bcc


@<TRIPOS>ATOM
      1 CL           4.0250    -1.6510     0.9180 cl         1 KEK      -0.121400
      2 C02          4.2890     0.0070     0.4650 ca         1 KEK       0.029400
      3 C03          5.3780     0.6660     1.0150 ca         1 KEK      -0.125000
      4 C04          5.6170     1.9890     0.6740 ca         1 KEK      -0.128000
      5 C05          4.7680     2.6360    -0.2120 ca         1 KEK      -0.127000
      6 C06          3.6860     1.9570    -0.7510 ca         1 KEK      -0.118000
      7 C07          3.4180     0.6270    -0.4290 ca         1 KEK      -0.061300
      8 C08          2.2200    -0.0640    -1.0140 c3         1 KEK      -0.022100
      9 C09          1.0640    -0.1080    -0.0200 c3         1 KEK      -0.186400
     10 C10         -0.1860    -0.7560    -0.5470 c          1 KEK       0.579100
     11 C11         -1.2570    -1.0450     0.4960 c3         1 KEK      -0.124500
     12 C12         -2.6280    -0.8270    -0.0500 c2         1 KEK      -0.181200
     13 C13         -3.5340    -0.0370     0.5270 ce         1 KEK      -0.194200
     14 C14         -4.8880     0.1440    -0.0380 c          1 KEK       0.410300
     15 C15         -5.8440     1.1270     0.6990 c          1 KEK       0.861600
     16 O16         -6.9250     1.3410     0.1360 o          1 KEK      -0.802300
     17 O17         -5.4200     1.5870     1.7740 o          1 KEK      -0.802300
     18 O18         -5.2560    -0.4400    -1.0360 o          1 KEK      -0.550100
     19 C19         -1.0760    -2.5020     0.9560 c3         1 KEK      -0.079100
     20 O20         -0.3330    -1.0550    -1.7090 o          1 KEK      -0.522100
     21 H03          6.0340     0.1500     1.7030 ha         1 KEK       0.141000
     22 H04          6.4660     2.5060     1.1010 ha         1 KEK       0.130000
     23 H05          4.9490     3.6670    -0.4860 ha         1 KEK       0.132000
     24 H06          3.0280     2.4650    -1.4450 ha         1 KEK       0.139000
     25 H081         1.9090     0.4700    -1.9120 hc         1 KEK       0.064200
     26 H082         2.4790    -1.0780    -1.3260 hc         1 KEK       0.064200
     27 H091         1.3520    -0.6160     0.9060 hc         1 KEK       0.068200
     28 H092         0.7840     0.9060     0.2920 hc         1 KEK       0.068200
     29 H11         -1.0970    -0.3910     1.3570 hc         1 KEK       0.059700
     30 H12         -2.8860    -1.3640    -0.9590 ha         1 KEK       0.143000
     31 H191        -1.7780    -2.7290     1.7570 hc         1 KEK       0.036033
     32 H192        -1.2540    -3.1990     0.1370 hc         1 KEK       0.036033
     33 H193        -0.0690    -2.6730     1.3370 hc         1 KEK       0.036033
     34 H13         -3.2920     0.5030     1.4330 ha         1 KEK       0.145000
@<TRIPOS>BOND
     1     1     2 1   
     2     2     3 ar  
     3     2     7 ar  
     4     3     4 ar  
     5     3    21 1   
     6     4     5 ar  
     7     4    22 1   
     8     5     6 ar  
     9     5    23 1   
    10     6     7 ar  
    11     6    24 1   
    12     7     8 1   
    13     8     9 1   
    14     8    25 1   
    15     8    26 1   
    16     9    10 1   
    17     9    27 1   
    18     9    28 1   
    19    10    11 1   
    20    10    20 2   
    21    11    12 1   
    22    11    19 1   
    23    11    29 1   
    24    12    13 2   
    25    12    30 1   
    26    13    14 1   
    27    13    34 1   
    28    14    15 1   
    29    14    18 2   
    30    15    16 1   
    31    15    17 1   
    32    19    31 1   
    33    19    32 1   
    34    19    33 1   
@<TRIPOS>SUBSTRUCTURE
     1 KEK         1 TEMP              0 ****  ****    0 ROOT
