@<TRIPOS>MOLECULE
KEL
   38    38     1     0     0
SMALL
No Charge or Current Charge


@<TRIPOS>ATOM
      1 O21          0.1200     3.2200     0.1990 o          1 KEL      -0.534100
      2 C18          0.8720     2.4460    -0.3780 c          1 KEL       0.595100
      3 N19          2.2330     2.7000    -0.5170 ns         1 KEL      -0.402400
      4 O20          2.7880     3.9990    -0.2050 oh         1 KEL      -0.432100
      5 C17          0.3760     1.1620    -1.0670 c3         1 KEL      -0.150400
      6 C8           0.0810    -0.0380    -0.1060 c3         1 KEL      -0.130700
      7 C9          -1.2860     0.0980     0.6070 c          1 KEL       0.601100
      8 O16         -1.5030     0.9250     1.4820 o          1 KEL      -0.646100
      9 N10         -2.2450    -0.8080     0.2040 ns         1 KEL      -0.459900
     10 C11         -3.6360    -0.8750     0.7110 c3         1 KEL      -0.039300
     11 C15         -4.5110     0.2470     0.1090 c3         1 KEL      -0.078100
     12 C12         -4.2530    -2.2850     0.4460 c          1 KEL       0.716000
     13 O14         -3.9990    -2.8430    -0.6140 o          1 KEL      -0.730500
     14 O13         -4.8720    -2.8230     1.3540 o          1 KEL      -0.730500
     15 C16          1.2150    -0.3480     0.9130 c3         1 KEL      -0.030100
     16 C23          2.5880    -0.5880     0.2840 ca         1 KEL      -0.066300
     17 C24          3.7100     0.1280     0.7490 ca         1 KEL      -0.112500
     18 C19          4.9780    -0.0820     0.1790 ca         1 KEL      -0.115500
     19 C20          5.1360    -1.0180    -0.8560 ca         1 KEL      -0.124000
     20 C21          4.0280    -1.7470    -1.3150 ca         1 KEL      -0.115500
     21 C22          2.7600    -1.5370    -0.7450 ca         1 KEL      -0.112500
     22 HN19         2.7930     2.1030    -1.1240 hn         1 KEL       0.324500
     23 HO20         3.5580     3.7890     0.3740 ho         1 KEL       0.435000
     24 H171        -0.5400     1.3950    -1.6220 hc         1 KEL       0.065700
     25 H172         1.1450     0.8270    -1.7740 hc         1 KEL       0.065700
     26 H8          -0.0110    -0.9110    -0.7630 hc         1 KEL       0.058700
     27 HN10        -1.9750    -1.4690    -0.5160 hn         1 KEL       0.334500
     28 H11         -3.6040    -0.7380     1.8000 h1         1 KEL       0.047700
     29 H151        -5.5300     0.1930     0.5090 hc         1 KEL       0.028033
     30 H152        -4.1030     1.2350     0.3510 hc         1 KEL       0.028033
     31 H153        -4.5650     0.1540    -0.9830 hc         1 KEL       0.028033
     32 H161         1.2700     0.4690     1.6440 hc         1 KEL       0.070200
     33 H162         0.9310    -1.2380     1.4900 hc         1 KEL       0.070200
     34 H24          3.6020     0.8530     1.5530 ha         1 KEL       0.114500
     35 H19          5.8360     0.4790     0.5410 ha         1 KEL       0.104500
     36 H20          6.1170    -1.1810    -1.2970 ha         1 KEL       0.103000
     37 H21          4.1510    -2.4780    -2.1110 ha         1 KEL       0.104500
     38 H22          1.9150    -2.1180    -1.1050 ha         1 KEL       0.114500
@<TRIPOS>BOND
     1     1     2 2   
     2     2     3 1   
     3     2     5 1   
     4     3     4 1   
     5     3    22 1   
     6     4    23 1   
     7     5     6 1   
     8     5    24 1   
     9     5    25 1   
    10     6     7 1   
    11     6    15 1   
    12     6    26 1   
    13     7     8 2   
    14     7     9 1   
    15     9    10 1   
    16     9    27 1   
    17    10    11 1   
    18    10    12 1   
    19    10    28 1   
    20    11    29 1   
    21    11    30 1   
    22    11    31 1   
    23    12    13 1   
    24    12    14 1   
    25    15    16 1   
    26    15    32 1   
    27    15    33 1   
    28    16    17 ar  
    29    16    21 ar  
    30    17    18 ar  
    31    17    34 1   
    32    18    19 ar  
    33    18    35 1   
    34    19    20 ar  
    35    19    36 1   
    36    20    21 ar  
    37    20    37 1   
    38    21    38 1   
@<TRIPOS>SUBSTRUCTURE
     1 KEL         1 TEMP              0 ****  ****    0 ROOT
