@<TRIPOS>MOLECULE
KEL
   38    38     1     0     0
SMALL
bcc


@<TRIPOS>ATOM
      1 O21         -0.5260     2.1460     0.3230 o          1 KEL      -0.534100
      2 C18          0.2910     1.8000    -0.5090 c          1 KEL       0.662100
      3 N19          1.1560     2.6560    -1.0910 ns         1 KEL      -0.469400
      4 O20          1.0030     3.9980    -0.9130 oh         1 KEL      -0.393100
      5 C17          0.4260     0.3740    -1.0040 c3         1 KEL      -0.150400
      6 C8           0.3150    -0.6570     0.1230 c3         1 KEL      -0.130700
      7 C9          -1.0350    -0.6250     0.8420 c          1 KEL       0.668100
      8 O16         -1.1250    -0.5440     2.0610 o          1 KEL      -0.646100
      9 N10         -2.0960    -0.6200     0.0300 ns         1 KEL      -0.526900
     10 C11         -3.4720    -0.5610     0.4680 c3         1 KEL      -0.039300
     11 C15         -3.8520     0.8300     0.9550 c3         1 KEL      -0.078100
     12 C12         -4.3890    -1.0000    -0.6920 c          1 KEL       0.926600
     13 O14         -3.8410    -1.2330    -1.7910 o          1 KEL      -0.835800
     14 O13         -5.5880    -1.1150    -0.4240 o          1 KEL      -0.835800
     15 C16          1.4550    -0.5420     1.1370 c3         1 KEL      -0.030100
     16 C23          2.8090    -0.7000     0.5010 ca         1 KEL      -0.066300
     17 C24          3.6430     0.3950     0.2910 ca         1 KEL      -0.130500
     18 C19          4.8800     0.2460    -0.3260 ca         1 KEL      -0.133500
     19 C20          5.3030    -1.0090    -0.7420 ca         1 KEL      -0.142000
     20 C21          4.4810    -2.1110    -0.5380 ca         1 KEL      -0.133500
     21 C22          3.2460    -1.9550     0.0770 ca         1 KEL      -0.130500
     22 HN19         1.7080     2.3960    -1.8960 hn         1 KEL       0.324500
     23 HO20         1.6310     4.2550    -0.2270 ho         1 KEL       0.396000
     24 H171        -0.3550     0.2170    -1.7520 hc         1 KEL       0.065700
     25 H172         1.3650     0.2300    -1.5410 hc         1 KEL       0.065700
     26 H8           0.3820    -1.6410    -0.3570 hc         1 KEL       0.058700
     27 HN10        -1.9940    -0.7560    -0.9660 hn         1 KEL       0.334500
     28 H11         -3.6220    -1.2680     1.2910 h1         1 KEL       0.047700
     29 H151        -4.8920     0.8480     1.2780 hc         1 KEL       0.028033
     30 H152        -3.2300     1.1310     1.7940 hc         1 KEL       0.028033
     31 H153        -3.7250     1.5710     0.1640 hc         1 KEL       0.028033
     32 H161         1.3930     0.4140     1.6630 hc         1 KEL       0.070200
     33 H162         1.3150    -1.3140     1.8950 hc         1 KEL       0.070200
     34 H24          3.3190     1.3780     0.6070 ha         1 KEL       0.132500
     35 H19          5.5090     1.1130    -0.4850 ha         1 KEL       0.122500
     36 H20          6.2640    -1.1300    -1.2240 ha         1 KEL       0.121000
     37 H21          4.8020    -3.0940    -0.8550 ha         1 KEL       0.122500
     38 H22          2.6150    -2.8240     0.2340 ha         1 KEL       0.132500
@<TRIPOS>BOND
     1     1     2 2   
     2     2     3 1   
     3     2     5 1   
     4     3     4 1   
     5     3    22 1   
     6     4    23 1   
     7     5     6 1   
     8     5    24 1   
     9     5    25 1   
    10     6     7 1   
    11     6    15 1   
    12     6    26 1   
    13     7     8 2   
    14     7     9 1   
    15     9    10 1   
    16     9    27 1   
    17    10    11 1   
    18    10    12 1   
    19    10    28 1   
    20    11    29 1   
    21    11    30 1   
    22    11    31 1   
    23    12    13 1   
    24    12    14 1   
    25    15    16 1   
    26    15    32 1   
    27    15    33 1   
    28    16    17 ar  
    29    16    21 ar  
    30    17    18 ar  
    31    17    34 1   
    32    18    19 ar  
    33    18    35 1   
    34    19    20 ar  
    35    19    36 1   
    36    20    21 ar  
    37    20    37 1   
    38    21    38 1   
@<TRIPOS>SUBSTRUCTURE
     1 KEL         1 TEMP              0 ****  ****    0 ROOT
