@<TRIPOS>MOLECULE
KEM
   50    51     1     0     0
SMALL
No Charge or Current Charge


@<TRIPOS>ATOM
      1 C01         12.3510   -39.4240    12.7050 c3         1 KEM      -0.081100
      2 C02         11.9300   -39.8880    11.2930 c3         1 KEM      -0.120500
      3 C03         10.4230   -40.0770    11.2080 c2         1 KEM      -0.216200
      4 C04          9.5550   -39.2110    10.6310 ce         1 KEM      -0.240200
      5 C05          8.0650   -39.4190    10.5620 c          1 KEM       0.438300
      6 O06          7.5440   -40.4300    11.0460 o          1 KEM      -0.572100
      7 C07          7.1950   -38.2540     9.8280 c          1 KEM       0.654000
      8 O08          7.7720   -37.4580     9.0910 o          1 KEM      -0.706500
      9 O09          5.9820   -38.2100    10.0300 o          1 KEM      -0.706500
     10 C10         12.7030   -41.1640    10.8710 c          1 KEM       0.566100
     11 O11         12.5720   -42.2260    11.4680 o          1 KEM      -0.503100
     12 C12         13.6080   -41.0570     9.6340 c3         1 KEM      -0.183400
     13 C13         12.8190   -41.3860     8.3430 c3         1 KEM      -0.055400
     14 C14         13.6370   -41.2150     7.0240 c6         1 KEM      -0.155700
     15 C15         12.7940   -41.3490     5.7220 c5         1 KEM      -0.058700
     16 C16         11.7990   -40.1860     5.4530 c5         1 KEM      -0.073400
     17 C17         11.4900   -40.4230     3.9560 c5         1 KEM      -0.114400
     18 C18         12.9350   -40.4580     3.4080 c5         1 KEM       0.166300
     19 O19         12.9800   -40.8460     2.0340 oh         1 KEM      -0.659000
     20 C20         13.6630   -41.4640     4.3910 c5         1 KEM      -0.043000
     21 C21         13.6570   -42.9370     3.8720 c3         1 KEM      -0.073100
     22 C22         15.1520   -41.0280     4.6180 c6         1 KEM      -0.058400
     23 C23         15.8400   -41.7830     5.7990 c6         1 KEM      -0.182400
     24 C24         14.8490   -42.1640     6.9110 c          1 KEM       0.570100
     25 O25         14.9070   -43.2530     7.4680 o          1 KEM      -0.517100
     26 H011        12.0900   -40.1770    13.4590 hc         1 KEM       0.037367
     27 H012        13.4330   -39.2520    12.7500 hc         1 KEM       0.037367
     28 H013        11.8460   -38.4870    12.9690 hc         1 KEM       0.037367
     29 H02         12.2160   -39.0870    10.6010 hc         1 KEM       0.054700
     30 H03         10.0570   -41.0010    11.6650 ha         1 KEM       0.190000
     31 H04          9.9210   -38.2890    10.1800 ha         1 KEM       0.182000
     32 H121        13.9750   -40.0290     9.5360 hc         1 KEM       0.063200
     33 H122        14.4470   -41.7540     9.7410 hc         1 KEM       0.063200
     34 H131        12.4310   -42.4110     8.4130 hc         1 KEM       0.054200
     35 H132        11.9380   -40.7340     8.3090 hc         1 KEM       0.054200
     36 H14         14.0360   -40.1920     6.9930 hc         1 KEM       0.064700
     37 H15         12.2190   -42.2740     5.8620 hc         1 KEM       0.060700
     38 H161        10.9010   -40.2510     6.0780 hc         1 KEM       0.051700
     39 H162        12.2510   -39.2020     5.6270 hc         1 KEM       0.051700
     40 H171        10.9490   -41.3610     3.7840 hc         1 KEM       0.051700
     41 H172        10.8970   -39.6100     3.5220 hc         1 KEM       0.051700
     42 H18         13.3730   -39.4540     3.5080 h1         1 KEM       0.029700
     43 H19         12.4550   -40.1820     1.5370 ho         1 KEM       0.439000
     44 H211        12.6430   -43.2650     3.6150 hc         1 KEM       0.038700
     45 H212        14.2760   -43.0510     2.9740 hc         1 KEM       0.038700
     46 H213        14.0410   -43.6380     4.6220 hc         1 KEM       0.038700
     47 H221        15.7380   -41.1550     3.6970 hc         1 KEM       0.046700
     48 H222        15.1770   -39.9500     4.8350 hc         1 KEM       0.046700
     49 H231        16.3910   -42.6740     5.4720 hc         1 KEM       0.069700
     50 H232        16.5550   -41.0770     6.2420 hc         1 KEM       0.069700
@<TRIPOS>BOND
     1     1     2 1   
     2     1    26 1   
     3     1    27 1   
     4     1    28 1   
     5     2     3 1   
     6     2    10 1   
     7     2    29 1   
     8     3     4 2   
     9     3    30 1   
    10     4     5 1   
    11     4    31 1   
    12     5     6 2   
    13     5     7 1   
    14     7     8 1   
    15     7     9 1   
    16    10    11 2   
    17    10    12 1   
    18    12    13 1   
    19    12    32 1   
    20    12    33 1   
    21    13    14 1   
    22    13    34 1   
    23    13    35 1   
    24    14    15 1   
    25    14    24 1   
    26    14    36 1   
    27    15    16 1   
    28    15    20 1   
    29    15    37 1   
    30    16    17 1   
    31    16    38 1   
    32    16    39 1   
    33    17    18 1   
    34    17    40 1   
    35    17    41 1   
    36    18    19 1   
    37    18    20 1   
    38    18    42 1   
    39    19    43 1   
    40    20    21 1   
    41    20    22 1   
    42    21    44 1   
    43    21    45 1   
    44    21    46 1   
    45    22    23 1   
    46    22    47 1   
    47    22    48 1   
    48    23    24 1   
    49    23    49 1   
    50    23    50 1   
    51    24    25 2   
@<TRIPOS>SUBSTRUCTURE
     1 KEM         1 TEMP              0 ****  ****    0 ROOT
