@<TRIPOS>MOLECULE
KEM
   50    51     1     0     0
SMALL
abcg2


@<TRIPOS>ATOM
      1 C01         11.1760   -38.6530     9.9010 c3         1 KEM      -0.081100
      2 C02         10.6670   -40.0880    10.0910 c3         1 KEM      -0.120500
      3 C03          9.6030   -40.2510    11.1290 c2         1 KEM      -0.216200
      4 C04          9.0680   -39.2850    11.8790 ce         1 KEM      -0.240200
      5 C05          8.0250   -39.5710    12.8880 c          1 KEM       0.438300
      6 O06          7.4800   -40.6630    13.0030 o          1 KEM      -0.572100
      7 C07          7.6110   -38.3940    13.7830 c          1 KEM       0.654000
      8 O08          7.0610   -37.4560    13.1580 o          1 KEM      -0.706500
      9 O09          7.8420   -38.4900    15.0060 o          1 KEM      -0.706500
     10 C10         11.8290   -41.0490    10.3520 c          1 KEM       0.566100
     11 O11         11.8900   -41.6990    11.3790 o          1 KEM      -0.503100
     12 C12         12.9180   -41.1470     9.3070 c3         1 KEM      -0.183400
     13 C13         12.4180   -41.3240     7.8680 c3         1 KEM      -0.055400
     14 C14         13.5600   -41.4560     6.8670 c6         1 KEM      -0.155700
     15 C15         13.0920   -41.2780     5.4040 c5         1 KEM      -0.058700
     16 C16         12.5070   -39.8770     5.1170 c5         1 KEM      -0.073400
     17 C17         12.8550   -39.6120     3.6530 c5         1 KEM      -0.114400
     18 C18         14.2700   -40.1710     3.5610 c5         1 KEM       0.166300
     19 O19         14.7700   -40.3510     2.2360 oh         1 KEM      -0.659000
     20 C20         14.2280   -41.5090     4.3380 c5         1 KEM      -0.043000
     21 C21         13.8390   -42.6720     3.4180 c3         1 KEM      -0.073100
     22 C22         15.5810   -41.7900     5.0120 c6         1 KEM      -0.058400
     23 C23         15.4900   -42.9160     6.0400 c6         1 KEM      -0.182400
     24 C24         14.2930   -42.7780     6.9540 c          1 KEM       0.570100
     25 O25         13.9350   -43.6920     7.6750 o          1 KEM      -0.517100
     26 H011        11.6760   -38.2930    10.8020 hc         1 KEM       0.037367
     27 H012        11.8800   -38.5940     9.0730 hc         1 KEM       0.037367
     28 H013        10.3420   -37.9860     9.6810 hc         1 KEM       0.037367
     29 H02         10.2280   -40.4160     9.1390 hc         1 KEM       0.054700
     30 H03          9.2350   -41.2630    11.2680 ha         1 KEM       0.190000
     31 H04          9.3990   -38.2580    11.8060 ha         1 KEM       0.182000
     32 H121        13.5080   -40.2260     9.3680 hc         1 KEM       0.063200
     33 H122        13.5680   -41.9700     9.5980 hc         1 KEM       0.063200
     34 H131        11.7780   -42.2080     7.8040 hc         1 KEM       0.054200
     35 H132        11.8090   -40.4670     7.5860 hc         1 KEM       0.054200
     36 H14         14.3030   -40.6730     7.0640 hc         1 KEM       0.064700
     37 H15         12.3110   -42.0210     5.2270 hc         1 KEM       0.060700
     38 H161        11.4370   -39.8240     5.3170 hc         1 KEM       0.051700
     39 H162        12.9970   -39.1340     5.7520 hc         1 KEM       0.051700
     40 H171        12.1940   -40.1720     2.9850 hc         1 KEM       0.051700
     41 H172        12.8020   -38.5570     3.3800 hc         1 KEM       0.051700
     42 H18         14.9390   -39.4900     4.1020 h1         1 KEM       0.029700
     43 H19         14.7880   -39.4870     1.8080 ho         1 KEM       0.439000
     44 H211        12.9110   -42.4580     2.8850 hc         1 KEM       0.038700
     45 H212        14.6170   -42.8710     2.6810 hc         1 KEM       0.038700
     46 H213        13.6790   -43.5810     4.0010 hc         1 KEM       0.038700
     47 H221        16.3290   -42.0340     4.2540 hc         1 KEM       0.046700
     48 H222        15.9250   -40.8790     5.5070 hc         1 KEM       0.046700
     49 H231        15.4350   -43.9020     5.5720 hc         1 KEM       0.069700
     50 H232        16.3800   -42.9310     6.6780 hc         1 KEM       0.069700
@<TRIPOS>BOND
     1     1     2 1   
     2     1    26 1   
     3     1    27 1   
     4     1    28 1   
     5     2     3 1   
     6     2    10 1   
     7     2    29 1   
     8     3     4 2   
     9     3    30 1   
    10     4     5 1   
    11     4    31 1   
    12     5     6 2   
    13     5     7 1   
    14     7     8 1   
    15     7     9 1   
    16    10    11 2   
    17    10    12 1   
    18    12    13 1   
    19    12    32 1   
    20    12    33 1   
    21    13    14 1   
    22    13    34 1   
    23    13    35 1   
    24    14    15 1   
    25    14    24 1   
    26    14    36 1   
    27    15    16 1   
    28    15    20 1   
    29    15    37 1   
    30    16    17 1   
    31    16    38 1   
    32    16    39 1   
    33    17    18 1   
    34    17    40 1   
    35    17    41 1   
    36    18    19 1   
    37    18    20 1   
    38    18    42 1   
    39    19    43 1   
    40    20    21 1   
    41    20    22 1   
    42    21    44 1   
    43    21    45 1   
    44    21    46 1   
    45    22    23 1   
    46    22    47 1   
    47    22    48 1   
    48    23    24 1   
    49    23    49 1   
    50    23    50 1   
    51    24    25 2   
@<TRIPOS>SUBSTRUCTURE
     1 KEM         1 TEMP              0 ****  ****    0 ROOT
