@<TRIPOS>MOLECULE
KEN
   13    12     1     0     0
SMALL
No Charge or Current Charge


@<TRIPOS>ATOM
      1 CA1         -0.0250     1.4430    -0.1090 c3         1 KEN       0.149433
      2 CB1         -1.2380    -0.6980    -0.1260 c3         1 KEN       0.149433
      3 CC1          1.2230    -0.6780    -0.1200 c3         1 KEN       0.149433
      4 NE1         -0.0140     0.0190     0.2940 n3         1 KEN      -0.711600
      5 HA1         -0.0230     1.5410    -1.2030 h1         1 KEN       0.029144
      6 HA1A        -0.9180     1.9500     0.2810 h1         1 KEN       0.029144
      7 HA1B         0.8580     1.9650     0.2850 h1         1 KEN       0.029144
      8 HB1         -1.3140    -0.7370    -1.2210 h1         1 KEN       0.029144
      9 HB1A        -1.2350    -1.7280     0.2560 h1         1 KEN       0.029144
     10 HB1B        -2.1350    -0.1980     0.2640 h1         1 KEN       0.029144
     11 HC1          2.1100    -0.1630     0.2730 h1         1 KEN       0.029144
     12 HC1A         1.2340    -1.7080     0.2610 h1         1 KEN       0.029144
     13 HC1B         1.3050    -0.7160    -1.2150 h1         1 KEN       0.029144
@<TRIPOS>BOND
     1     1     4 1   
     2     1     5 1   
     3     1     6 1   
     4     1     7 1   
     5     2     4 1   
     6     2     8 1   
     7     2     9 1   
     8     2    10 1   
     9     3     4 1   
    10     3    11 1   
    11     3    12 1   
    12     3    13 1   
@<TRIPOS>SUBSTRUCTURE
     1 KEN         1 TEMP              0 ****  ****    0 ROOT
