@<TRIPOS>MOLECULE
KEN
   13    12     1     0     0
SMALL
abcg2


@<TRIPOS>ATOM
      1 CA1         -0.0250     1.4000    -0.1130 c3         1 KEN       0.149433
      2 CB1         -1.2020    -0.6760    -0.1230 c3         1 KEN       0.149433
      3 CC1          1.1860    -0.6570    -0.1170 c3         1 KEN       0.149433
      4 NE1         -0.0150     0.0200     0.3180 n3         1 KEN      -0.711600
      5 HA1         -0.0250     1.5120    -1.2100 h1         1 KEN       0.029144
      6 HA1A        -0.9100     1.9080     0.2720 h1         1 KEN       0.029144
      7 HA1B         0.8540     1.9210     0.2720 h1         1 KEN       0.029144
      8 HB1         -1.3050    -0.7120    -1.2200 h1         1 KEN       0.029144
      9 HB1A        -1.1920    -1.7040     0.2420 h1         1 KEN       0.029144
     10 HB1B        -2.0930    -0.1890     0.2760 h1         1 KEN       0.029144
     11 HC1          2.0670    -0.1530     0.2850 h1         1 KEN       0.029144
     12 HC1A         1.1930    -1.6840     0.2510 h1         1 KEN       0.029144
     13 HC1B         1.2940    -0.6940    -1.2130 h1         1 KEN       0.029144
@<TRIPOS>BOND
     1     1     4 1   
     2     1     5 1   
     3     1     6 1   
     4     1     7 1   
     5     2     4 1   
     6     2     8 1   
     7     2     9 1   
     8     2    10 1   
     9     3     4 1   
    10     3    11 1   
    11     3    12 1   
    12     3    13 1   
@<TRIPOS>SUBSTRUCTURE
     1 KEN         1 TEMP              0 ****  ****    0 ROOT
