@<TRIPOS>MOLECULE
KEO
   45    44     1     0     0
SMALL
bcc


@<TRIPOS>ATOM
      1 CA         176.9810   201.8910   198.2430 c3         1 KEO       0.032500
      2 N          177.1270   201.5690   199.6550 n8         1 KEO      -0.882800
      3 C          176.4290   200.6660   197.4580 c          1 KEO       0.931600
      4 O          176.5010   200.7250   196.2140 o          1 KEO      -0.836300
      5 CB         178.2940   202.3980   197.6490 c3         1 KEO      -0.059400
      6 CG         178.6790   203.8260   198.0080 c3         1 KEO       0.145100
      7 CD         179.8830   204.2690   197.1760 c3         1 KEO      -0.129400
      8 CE         180.3960   205.6730   197.4700 c3         1 KEO       0.106000
      9 C05        178.9820   207.7260   197.9770 c          1 KEO       0.668100
     10 C06        179.6480   207.9760   199.3100 c3         1 KEO      -0.201400
     11 C07        180.7960   209.0110   199.2370 c3         1 KEO       0.179500
     12 C08        180.3430   210.4100   198.8170 c3         1 KEO      -0.069400
     13 C09        179.2280   211.0360   199.6480 c3         1 KEO      -0.077400
     14 C10        179.5700   211.1910   201.1230 c3         1 KEO       0.146800
     15 NZ         179.3820   206.6790   197.2270 ns         1 KEO      -0.582900
     16 N02        181.9120   208.6190   198.3920 n8         1 KEO      -0.901800
     17 N03        178.5020   211.8880   201.8270 n8         1 KEO      -0.883800
     18 O01        178.9540   203.9160   199.3980 oh         1 KEO      -0.589800
     19 O02        178.1040   208.4800   197.5670 o          1 KEO      -0.618100
     20 OXT        175.9150   199.7470   198.1270 o          1 KEO      -0.836300
     21 H1         176.2300   202.6870   198.0720 h1         1 KEO      -0.013300
     22 H2         177.2370   202.4200   200.1880 hn         1 KEO       0.327800
     23 H3         176.2810   201.1180   199.9720 hn         1 KEO       0.327800
     24 H5         179.1070   201.7160   197.9280 hc         1 KEO       0.059700
     25 H6         178.2100   202.3560   196.5630 hc         1 KEO       0.059700
     26 H7         177.8250   204.4720   197.7560 h1         1 KEO       0.026700
     27 H8         180.7110   203.5710   197.3310 hc         1 KEO       0.056700
     28 H9         179.6180   204.1980   196.1160 hc         1 KEO       0.056700
     29 H10        181.2720   205.8700   196.8450 h1         1 KEO       0.034700
     30 H11        180.7400   205.7370   198.5000 h1         1 KEO       0.034700
     31 H12        178.8770   208.3350   199.9930 hc         1 KEO       0.068700
     32 H13        180.0460   207.0620   199.7550 hc         1 KEO       0.068700
     33 H14        181.1890   209.0750   200.2560 h1         1 KEO       0.052700
     34 H15        181.2250   211.0560   198.8580 hc         1 KEO       0.049200
     35 H16        180.0350   210.3890   197.7680 hc         1 KEO       0.049200
     36 H17        179.0150   212.0260   199.2320 hc         1 KEO       0.055200
     37 H18        178.3040   210.4620   199.5460 hc         1 KEO       0.055200
     38 H19        179.6850   210.2060   201.5830 h1         1 KEO       0.023200
     39 H20        180.5500   211.6840   201.2100 h1         1 KEO       0.023200
     40 H21        178.9130   206.6100   196.3340 hn         1 KEO       0.315500
     41 H22        182.2690   207.7130   198.6700 hn         1 KEO       0.344300
     42 H23        181.6130   208.5240   197.4280 hn         1 KEO       0.344300
     43 H25        178.7340   211.9580   202.8100 hn         1 KEO       0.331800
     44 H26        178.4500   212.8420   201.4920 hn         1 KEO       0.331800
     45 H28        178.8030   204.8200   199.6860 ho         1 KEO       0.375000
@<TRIPOS>BOND
     1     1     2 1   
     2     1     3 1   
     3     1     5 1   
     4     1    21 1   
     5     2    22 1   
     6     2    23 1   
     7     3     4 1   
     8     3    20 1   
     9     5     6 1   
    10     5    24 1   
    11     5    25 1   
    12     6     7 1   
    13     6    18 1   
    14     6    26 1   
    15     7     8 1   
    16     7    27 1   
    17     7    28 1   
    18     8    15 1   
    19     8    29 1   
    20     8    30 1   
    21     9    10 1   
    22     9    15 1   
    23     9    19 2   
    24    10    11 1   
    25    10    31 1   
    26    10    32 1   
    27    11    12 1   
    28    11    16 1   
    29    11    33 1   
    30    12    13 1   
    31    12    34 1   
    32    12    35 1   
    33    13    14 1   
    34    13    36 1   
    35    13    37 1   
    36    14    17 1   
    37    14    38 1   
    38    14    39 1   
    39    15    40 1   
    40    16    41 1   
    41    16    42 1   
    42    17    43 1   
    43    17    44 1   
    44    18    45 1   
@<TRIPOS>SUBSTRUCTURE
     1 KEO         1 TEMP              0 ****  ****    0 ROOT
