@<TRIPOS>MOLECULE
KEO
   45    44     1     0     0
SMALL
No Charge or Current Charge


@<TRIPOS>ATOM
      1 CA         177.0080   201.3280   197.5040 c3         1 KEO       0.032500
      2 N          176.9440   200.6280   198.8370 n8         1 KEO      -0.882800
      3 C          176.6710   200.4510   196.2110 c          1 KEO       0.931600
      4 O          175.5040   200.3940   195.8320 o          1 KEO      -0.836300
      5 CB         178.3570   202.0950   197.3570 c3         1 KEO      -0.059400
      6 CG         178.5070   203.3620   198.2460 c3         1 KEO       0.145100
      7 CD         179.7840   204.1670   197.8920 c3         1 KEO      -0.129400
      8 CE         179.9680   205.4860   198.6720 c3         1 KEO       0.106000
      9 C05        178.7830   207.7290   198.8710 c          1 KEO       0.668100
     10 C06        179.8590   208.2810   199.8250 c3         1 KEO      -0.201400
     11 C07        180.8190   209.3110   199.1770 c3         1 KEO       0.179500
     12 C08        180.1510   210.5570   198.5310 c3         1 KEO      -0.069400
     13 C09        179.2850   211.4260   199.4800 c3         1 KEO      -0.077400
     14 C10        180.0630   212.0230   200.6720 c3         1 KEO       0.146800
     15 NZ         178.8740   206.4280   198.4280 ns         1 KEO      -0.582900
     16 N02        181.6920   208.6490   198.1980 n8         1 KEO      -0.901800
     17 N03        179.2030   212.8870   201.4980 n8         1 KEO      -0.883800
     18 O01        178.5580   202.9980   199.6310 oh         1 KEO      -0.589800
     19 O02        177.8080   208.3870   198.5460 o          1 KEO      -0.618100
     20 OXT        177.5760   199.8600   195.6270 o          1 KEO      -0.836300
     21 H1         176.2290   202.1020   197.5500 h1         1 KEO      -0.013300
     22 H2         177.2810   201.2870   199.5500 hn         1 KEO       0.327800
     23 H3         175.9640   200.4500   199.0800 hn         1 KEO       0.327800
     24 H5         179.1950   201.4100   197.5370 hc         1 KEO       0.059700
     25 H6         178.4450   202.4160   196.3120 hc         1 KEO       0.059700
     26 H7         177.6340   204.0030   198.0650 h1         1 KEO       0.026700
     27 H8         180.6650   203.5350   198.0640 hc         1 KEO       0.056700
     28 H9         179.7760   204.3990   196.8200 hc         1 KEO       0.056700
     29 H10        180.9120   205.9500   198.3620 h1         1 KEO       0.034700
     30 H11        180.0270   205.2750   199.7480 h1         1 KEO       0.034700
     31 H12        179.3440   208.7800   200.6530 hc         1 KEO       0.068700
     32 H13        180.4680   207.4760   200.2460 hc         1 KEO       0.068700
     33 H14        181.4820   209.6760   199.9750 h1         1 KEO       0.052700
     34 H15        180.9400   211.1960   198.1130 hc         1 KEO       0.049200
     35 H16        179.5360   210.2450   197.6790 hc         1 KEO       0.049200
     36 H17        178.8520   212.2450   198.8930 hc         1 KEO       0.055200
     37 H18        178.4400   210.8360   199.8550 hc         1 KEO       0.055200
     38 H19        180.4550   211.2180   201.3080 h1         1 KEO       0.023200
     39 H20        180.9070   212.6210   200.3030 h1         1 KEO       0.023200
     40 H21        178.1160   206.1310   197.8260 hn         1 KEO       0.315500
     41 H22        182.1720   207.8650   198.6480 hn         1 KEO       0.344300
     42 H23        181.1200   208.2170   197.4670 hn         1 KEO       0.344300
     43 H25        179.7670   213.3040   202.2460 hn         1 KEO       0.331800
     44 H26        178.8930   213.6860   200.9360 hn         1 KEO       0.331800
     45 H28        178.5300   203.8310   200.1440 ho         1 KEO       0.375000
@<TRIPOS>BOND
     1     1     2 1   
     2     1     3 1   
     3     1     5 1   
     4     1    21 1   
     5     2    22 1   
     6     2    23 1   
     7     3     4 1   
     8     3    20 1   
     9     5     6 1   
    10     5    24 1   
    11     5    25 1   
    12     6     7 1   
    13     6    18 1   
    14     6    26 1   
    15     7     8 1   
    16     7    27 1   
    17     7    28 1   
    18     8    15 1   
    19     8    29 1   
    20     8    30 1   
    21     9    10 1   
    22     9    15 1   
    23     9    19 2   
    24    10    11 1   
    25    10    31 1   
    26    10    32 1   
    27    11    12 1   
    28    11    16 1   
    29    11    33 1   
    30    12    13 1   
    31    12    34 1   
    32    12    35 1   
    33    13    14 1   
    34    13    36 1   
    35    13    37 1   
    36    14    17 1   
    37    14    38 1   
    38    14    39 1   
    39    15    40 1   
    40    16    41 1   
    41    16    42 1   
    42    17    43 1   
    43    17    44 1   
    44    18    45 1   
@<TRIPOS>SUBSTRUCTURE
     1 KEO         1 TEMP              0 ****  ****    0 ROOT
