@<TRIPOS>MOLECULE
KEP
   42    45     1     0     0
SMALL
bcc


@<TRIPOS>ATOM
      1 C4          -2.1500    -0.0310    -0.6350 ca         1 KEP      -0.087500
      2 C14          4.3060    -0.0590     0.4330 cc         1 KEP       0.427500
      3 C5          -1.5500    -1.1320    -1.2460 ca         1 KEP      -0.121000
      4 C6          -2.0620    -2.4040    -1.0550 ca         1 KEP       0.024400
      5 C11          2.1240     1.0170    -0.3350 c          1 KEP       0.727300
      6 C7          -3.1930    -2.6120    -0.2830 ca         1 KEP      -0.113000
      7 C8          -3.8010    -1.5220     0.3200 ca         1 KEP      -0.119000
      8 C9          -3.2800    -0.2500     0.1530 ca         1 KEP       0.109100
      9 C10         -3.5840     1.1460     2.0120 c3         1 KEP       0.605700
     10 C12          2.9660    -0.1170     0.0500 cd         1 KEP      -0.363800
     11 C13          2.6640    -1.4880     0.0760 cd         1 KEP       0.416500
     12 N1          -2.2770     2.3540    -1.1960 nc         1 KEP      -0.483800
     13 N2           0.7900     0.7830    -0.2440 ns         1 KEP      -0.448100
     14 C3          -1.5650     1.3000    -0.8300 cd         1 KEP       0.319800
     15 N3           3.6860    -2.2380     0.4360 nc         1 KEP      -0.572100
     16 O1           2.5800     2.0830    -0.7170 o          1 KEP      -0.577100
     17 N5           5.1620     0.9520     0.6130 nc         1 KEP      -0.612000
     18 C15          6.3710     0.6440     1.0050 cd         1 KEP       0.446200
     19 C16          6.8080    -0.6790     1.2420 cd         1 KEP      -0.304300
     20 C17          5.9230    -1.6940     1.0600 cc         1 KEP      -0.001300
     21 N4           4.6760    -1.3690     0.6570 na         1 KEP       0.066200
     22 C2          -0.2100     1.6540    -0.6600 cd         1 KEP      -0.099700
     23 C1          -0.1590     2.9980    -0.9620 cc         1 KEP      -0.147300
     24 N           -1.4220     3.3550    -1.2740 na         1 KEP       0.118400
     25 C           -1.8680     4.6570    -1.7090 c3         1 KEP       0.046600
     26 O           -3.9180     0.8230     0.7380 os         1 KEP      -0.352900
     27 F1          -3.9190     0.1540     2.8730 f          1 KEP      -0.255800
     28 F           -2.2490     1.3040     2.1470 f          1 KEP      -0.255800
     29 CL          -1.2810    -3.7490    -1.8130 cl         1 KEP      -0.102400
     30 H1          -0.6920    -0.9880    -1.8900 ha         1 KEP       0.158000
     31 H2          -3.5980    -3.6050    -0.1460 ha         1 KEP       0.153000
     32 H3          -4.6930    -1.6690     0.9140 ha         1 KEP       0.155000
     33 H4          -4.1020     2.0620     2.2860 h3         1 KEP       0.106700
     34 H5           1.7310    -1.9700    -0.1830 h4         1 KEP       0.053800
     35 H6           0.4830    -0.0610     0.2140 hn         1 KEP       0.326500
     36 H7           7.0610     1.4660     1.1520 h4         1 KEP       0.037100
     37 H8           7.8170    -0.8830     1.5640 ha         1 KEP       0.164000
     38 H9           6.1350    -2.7420     1.2110 h4         1 KEP       0.185000
     39 H10          0.6510     3.7050    -0.9690 h4         1 KEP       0.200000
     40 H11         -2.7120     4.9820    -1.1040 h1         1 KEP       0.057367
     41 H12         -1.0550     5.3660    -1.5900 h1         1 KEP       0.057367
     42 H13         -2.1660     4.6310    -2.7560 h1         1 KEP       0.057367
@<TRIPOS>BOND
     1     1     3 ar  
     2     1     8 ar  
     3     1    14 1   
     4     2    10 2   
     5     2    17 1   
     6     2    21 1   
     7     3     4 ar  
     8     3    30 1   
     9     4     6 ar  
    10     4    29 1   
    11     5    10 1   
    12     5    13 1   
    13     5    16 2   
    14     6     7 ar  
    15     6    31 1   
    16     7     8 ar  
    17     7    32 1   
    18     8    26 1   
    19     9    26 1   
    20     9    27 1   
    21     9    28 1   
    22     9    33 1   
    23    10    11 1   
    24    11    15 2   
    25    11    34 1   
    26    12    14 2   
    27    12    24 1   
    28    13    22 1   
    29    13    35 1   
    30    14    22 1   
    31    15    21 1   
    32    17    18 2   
    33    18    19 1   
    34    18    36 1   
    35    19    20 2   
    36    19    37 1   
    37    20    21 1   
    38    20    38 1   
    39    22    23 2   
    40    23    24 1   
    41    23    39 1   
    42    24    25 1   
    43    25    40 1   
    44    25    41 1   
    45    25    42 1   
@<TRIPOS>SUBSTRUCTURE
     1 KEP         1 TEMP              0 ****  ****    0 ROOT
