@<TRIPOS>MOLECULE
KEP
   42    45     1     0     0
SMALL
No Charge or Current Charge


@<TRIPOS>ATOM
      1 C4          -2.1120    -0.0240    -0.7580 ca         1 KEP      -0.087500
      2 C14          4.2420    -0.0450     0.5320 cc         1 KEP       0.427500
      3 C5          -1.5580    -1.1000    -1.4840 ca         1 KEP      -0.103000
      4 C6          -2.0510    -2.4030    -1.3130 ca         1 KEP       0.116000
      5 C11          2.1340     1.1520    -0.1880 c          1 KEP       0.660300
      6 C7          -3.1050    -2.6480    -0.4200 ca         1 KEP      -0.095000
      7 C8          -3.6670    -1.5840     0.3070 ca         1 KEP      -0.101000
      8 C9          -3.1710    -0.2780     0.1440 ca         1 KEP       0.109100
      9 C10         -3.2890     0.9680     2.2390 c3         1 KEP       0.386300
     10 C12          2.9040    -0.0180     0.2660 cd         1 KEP      -0.363800
     11 C13          2.4350    -1.3410     0.5180 cd         1 KEP       0.416500
     12 N1          -2.3400     2.3410    -1.3410 nc         1 KEP      -0.483800
     13 N2           0.7920     0.8740    -0.3740 ns         1 KEP      -0.381100
     14 C3          -1.5770     1.3320    -0.9610 cd         1 KEP       0.254500
     15 N3           3.3750    -2.1890     0.9210 nc         1 KEP      -0.572100
     16 O1           2.6160     2.2570    -0.3850 o          1 KEP      -0.577100
     17 N5           5.1380     0.9830     0.4400 nc         1 KEP      -0.612000
     18 C15          6.3640     0.5910     0.7790 cd         1 KEP       0.380900
     19 C16          6.6880    -0.7580     1.1920 cd         1 KEP      -0.221000
     20 C17          5.7370    -1.7760     1.2720 cc         1 KEP      -0.034000
     21 N4           4.4600    -1.3540     0.9150 na         1 KEP       0.116900
     22 C2          -0.2280     1.7250    -0.7900 cd         1 KEP      -0.034400
     23 C1          -0.1390     3.0540    -1.0810 cc         1 KEP      -0.180000
     24 N           -1.4490     3.3960    -1.4110 na         1 KEP       0.139800
     25 C           -1.9240     4.7280    -1.8070 c3         1 KEP       0.075900
     26 O           -3.7190     0.7450     0.8820 os         1 KEP      -0.376100
     27 F1          -3.5540    -0.1070     3.0180 f          1 KEP      -0.134500
     28 F           -1.9510     1.1670     2.2960 f          1 KEP      -0.134500
     29 Cl          -1.3460    -3.7320    -2.2240 cl         1 KEP      -0.194000
     30 H1          -0.7520    -0.9230    -2.1930 ha         1 KEP       0.140000
     31 H2          -3.4860    -3.6590    -0.2920 ha         1 KEP       0.135000
     32 H3          -4.4840    -1.7720     0.9980 ha         1 KEP       0.137000
     33 H4          -3.7940     1.8420     2.6640 h3         1 KEP       0.106700
     34 H5           1.4230    -1.7150     0.4180 h4         1 KEP       0.053800
     35 H6           0.5420    -0.0830    -0.1660 hn         1 KEP       0.326500
     36 H7           7.1130     1.3700     0.7220 h4         1 KEP       0.037100
     37 H8           7.7180    -0.9810     1.4500 ha         1 KEP       0.146000
     38 H9           5.8920    -2.8050     1.5690 h4         1 KEP       0.167000
     39 H10          0.6830     3.7580    -1.0790 h4         1 KEP       0.182000
     40 H11         -2.6890     5.0690    -1.1000 h1         1 KEP       0.057367
     41 H12         -1.0870     5.4370    -1.8040 h1         1 KEP       0.057367
     42 H13         -2.3530     4.6800    -2.8150 h1         1 KEP       0.057367
@<TRIPOS>BOND
     1     1     3 ar  
     2     1     8 ar  
     3     1    14 1   
     4     2    10 2   
     5     2    17 1   
     6     2    21 1   
     7     3     4 ar  
     8     3    30 1   
     9     4     6 ar  
    10     4    29 1   
    11     5    10 1   
    12     5    13 1   
    13     5    16 2   
    14     6     7 ar  
    15     6    31 1   
    16     7     8 ar  
    17     7    32 1   
    18     8    26 1   
    19     9    26 1   
    20     9    27 1   
    21     9    28 1   
    22     9    33 1   
    23    10    11 1   
    24    11    15 2   
    25    11    34 1   
    26    12    14 2   
    27    12    24 1   
    28    13    22 1   
    29    13    35 1   
    30    14    22 1   
    31    15    21 1   
    32    17    18 2   
    33    18    19 1   
    34    18    36 1   
    35    19    20 2   
    36    19    37 1   
    37    20    21 1   
    38    20    38 1   
    39    22    23 2   
    40    23    24 1   
    41    23    39 1   
    42    24    25 1   
    43    25    40 1   
    44    25    41 1   
    45    25    42 1   
@<TRIPOS>SUBSTRUCTURE
     1 KEP         1 TEMP              0 ****  ****    0 ROOT
