@<TRIPOS>MOLECULE
KEQ
   45    47     1     0     0
SMALL
bcc


@<TRIPOS>ATOM
      1 CA          -8.8710    20.3860     0.4970 c          1 KEQ       0.710500
      2 CB          -8.2720    17.5490     0.3730 c          1 KEQ       0.711500
      3 NB          -7.7470    19.9230    -0.0580 ns         1 KEQ      -0.563900
      4 OB          -8.0140    16.3600     0.2620 o          1 KEQ      -0.640500
      5 CD1        -10.6300    17.5320     3.8490 ca         1 KEQ      -0.084500
      6 CD2        -12.4020    18.9300     3.0800 ca         1 KEQ      -0.084500
      7 CD3         -6.3120    20.0340     2.8610 ca         1 KEQ      -0.083500
      8 CE1        -11.5520    16.6440     4.3830 ca         1 KEQ      -0.193500
      9 CE2        -13.3370    18.0550     3.6080 ca         1 KEQ      -0.193500
     10 CE3         -6.6280    20.3020     4.1890 ca         1 KEQ      -0.194500
     11 CAA         -9.8280    19.3700     1.0830 c6         1 KEQ       0.042700
     12 CAB         -7.2290    18.5760    -0.0120 c6         1 KEQ       0.037700
     13 CBA        -10.0300    19.6310     2.5860 c3         1 KEQ      -0.040100
     14 CBB         -6.0010    18.4650     0.9120 c3         1 KEQ      -0.035100
     15 CD4         -6.6250    17.7020     3.2330 ca         1 KEQ      -0.083500
     16 CE4         -6.9350    17.9460     4.5580 ca         1 KEQ      -0.194500
     17 CGA        -11.0330    18.6900     3.1910 ca         1 KEQ      -0.133300
     18 CGB         -6.3100    18.7400     2.3540 ca         1 KEQ      -0.133300
     19 CZA        -12.9150    16.9010     4.2660 ca         1 KEQ       0.142100
     20 CZB         -6.9480    19.2540     5.0470 ca         1 KEQ       0.144100
     21 NA          -9.4470    18.0030     0.8170 ns         1 KEQ      -0.559900
     22 OA          -9.1620    21.5720     0.5220 o          1 KEQ      -0.636500
     23 OAX        -13.8590    16.0790     4.7680 oh         1 KEQ      -0.493100
     24 OAY         -7.2710    19.4040     6.3460 os         1 KEQ      -0.316900
     25 H1          -7.1340    20.6170    -0.4640 hn         1 KEQ       0.320500
     26 H3         -12.7500    19.8250     2.5780 ha         1 KEQ       0.136500
     27 H4          -6.0550    20.8650     2.2150 ha         1 KEQ       0.137000
     28 H5         -11.2060    15.7510     4.8910 ha         1 KEQ       0.140500
     29 H6         -14.3950    18.2670     3.5170 ha         1 KEQ       0.140500
     30 H7          -6.6160    21.3290     4.5290 ha         1 KEQ       0.143000
     31 H8         -10.7840    19.5500     0.5810 h1         1 KEQ       0.080700
     32 H9          -6.9040    18.3110    -1.0220 h1         1 KEQ       0.081700
     33 H10         -7.6380    20.6070     7.9180 h1         1 KEQ       0.042033
     34 H11         -6.3670    21.2170     6.8460 h1         1 KEQ       0.042033
     35 H12         -8.0730    21.3280     6.3590 h1         1 KEQ       0.042033
     36 H13         -9.0710    19.5430     3.0990 hc         1 KEQ       0.071200
     37 H14        -10.3650    20.6630     2.7030 hc         1 KEQ       0.071200
     38 H15         -5.5860    17.4630     0.7920 hc         1 KEQ       0.064200
     39 H16         -5.2450    19.1600     0.5410 hc         1 KEQ       0.064200
     40 H17         -6.6230    16.6780     2.8760 ha         1 KEQ       0.137000
     41 H18         -7.1690    17.1250     5.2240 ha         1 KEQ       0.143000
     42 H19        -10.1290    17.2980     1.0650 hn         1 KEQ       0.330500
     43 H20        -13.4470    15.3280     5.2090 ho         1 KEQ       0.427000
     44 H2          -9.5730    17.3200     3.9550 ha         1 KEQ       0.136500
     45 CAY         -7.3360    20.7110     6.8790 c3         1 KEQ       0.124700
@<TRIPOS>BOND
     1     1     3 1   
     2     1    11 1   
     3     1    22 2   
     4     2     4 2   
     5     2    12 1   
     6     2    21 1   
     7     3    12 1   
     8     3    25 1   
     9     5     8 ar  
    10     5    17 ar  
    11     5    44 1   
    12     6     9 ar  
    13     6    17 ar  
    14     6    26 1   
    15     7    10 ar  
    16     7    18 ar  
    17     7    27 1   
    18     8    19 ar  
    19     8    28 1   
    20     9    19 ar  
    21     9    29 1   
    22    10    20 ar  
    23    10    30 1   
    24    11    13 1   
    25    11    21 1   
    26    11    31 1   
    27    12    14 1   
    28    12    32 1   
    29    13    17 1   
    30    13    36 1   
    31    13    37 1   
    32    14    18 1   
    33    14    38 1   
    34    14    39 1   
    35    15    16 ar  
    36    15    18 ar  
    37    15    40 1   
    38    16    20 ar  
    39    16    41 1   
    40    19    23 1   
    41    20    24 1   
    42    21    42 1   
    43    23    43 1   
    44    24    45 1   
    45    33    45 1   
    46    34    45 1   
    47    35    45 1   
@<TRIPOS>SUBSTRUCTURE
     1 KEQ         1 TEMP              0 ****  ****    0 ROOT
