@<TRIPOS>MOLECULE
KEQ
   45    47     1     0     0
SMALL
No Charge or Current Charge


@<TRIPOS>ATOM
      1 CA          -8.8360    20.4610     0.5540 c          1 KEQ       0.568000
      2 CB          -8.3440    17.5310     0.3050 c          1 KEQ       0.569000
      3 NB          -7.7060    19.9820    -0.0670 ns         1 KEQ      -0.496900
      4 OB          -8.1670    16.3270     0.1960 o          1 KEQ      -0.565000
      5 CD1        -10.6800    17.3800     3.8000 ca         1 KEQ      -0.066500
      6 CD2        -12.4550    18.8650     3.0510 ca         1 KEQ      -0.066500
      7 CD3         -6.2370    20.0690     2.8490 ca         1 KEQ      -0.065500
      8 CE1        -11.6410    16.4920     4.3160 ca         1 KEQ      -0.175500
      9 CE2        -13.4140    17.9760     3.5680 ca         1 KEQ      -0.175500
     10 CE3         -6.5180    20.3790     4.1910 ca         1 KEQ      -0.176500
     11 CAA         -9.8770    19.4160     1.0570 c6         1 KEQ       0.042700
     12 CAB         -7.2360    18.5730    -0.0340 c6         1 KEQ       0.037700
     13 CBA        -10.0450    19.5340     2.5980 c3         1 KEQ      -0.040100
     14 CBB         -6.0260    18.4030     0.9320 c3         1 KEQ      -0.035100
     15 CD4         -6.6880    17.7220     3.2920 ca         1 KEQ      -0.065500
     16 CE4         -6.9630    18.0310     4.6350 ca         1 KEQ      -0.176500
     17 CGA        -11.0830    18.5720     3.1660 ca         1 KEQ      -0.133300
     18 CGB         -6.3280    18.7410     2.3900 ca         1 KEQ      -0.133300
     19 CZA        -13.0070    16.7920     4.1990 ca         1 KEQ       0.142100
     20 CZB         -6.8850    19.3560     5.0910 ca         1 KEQ       0.144100
     21 NA          -9.5790    18.0150     0.6680 ns         1 KEQ      -0.492900
     22 OA          -9.0270    21.6650     0.6330 o          1 KEQ      -0.561000
     23 OAX        -13.9440    15.9370     4.6960 oh         1 KEQ      -0.532100
     24 OAY         -7.1750    19.5990     6.4180 os         1 KEQ      -0.340100
     25 H1          -7.0820    20.6880    -0.4400 hn         1 KEQ       0.320500
     26 H3         -12.7800    19.7820     2.5610 ha         1 KEQ       0.118500
     27 H4          -5.9530    20.8650     2.1630 ha         1 KEQ       0.119000
     28 H5         -11.3150    15.5760     4.8030 ha         1 KEQ       0.122500
     29 H6         -14.4720    18.2070     3.4770 ha         1 KEQ       0.122500
     30 H7          -6.4440    21.4140     4.5120 ha         1 KEQ       0.125000
     31 H8         -10.8290    19.6950     0.5840 h1         1 KEQ       0.080700
     32 H9          -6.8990    18.3170    -1.0490 h1         1 KEQ       0.081700
     33 H10         -7.4090    20.8920     8.0430 h1         1 KEQ       0.042033
     34 H11         -6.1390    21.3590     6.8940 h1         1 KEQ       0.042033
     35 H12         -7.8570    21.5810     6.4690 h1         1 KEQ       0.042033
     36 H13         -9.0790    19.3650     3.0860 hc         1 KEQ       0.071200
     37 H14        -10.3240    20.5620     2.8600 hc         1 KEQ       0.071200
     38 H15         -5.6470    17.3760     0.8620 hc         1 KEQ       0.064200
     39 H16         -5.1990    19.0320     0.5810 hc         1 KEQ       0.064200
     40 H17         -6.7580    16.6890     2.9540 ha         1 KEQ       0.119000
     41 H18         -7.2430    17.2400     5.3260 ha         1 KEQ       0.125000
     42 H19        -10.2860    17.3120     0.8480 hn         1 KEQ       0.330500
     43 H20        -13.4820    15.1710     5.0990 ho         1 KEQ       0.466000
     44 H2          -9.6230    17.1380     3.8910 ha         1 KEQ       0.118500
     45 CAY         -7.1420    20.9230     6.9790 c3         1 KEQ       0.147900
@<TRIPOS>BOND
     1     1     3 1   
     2     1    11 1   
     3     1    22 2   
     4     2     4 2   
     5     2    12 1   
     6     2    21 1   
     7     3    12 1   
     8     3    25 1   
     9     5     8 ar  
    10     5    17 ar  
    11     5    44 1   
    12     6     9 ar  
    13     6    17 ar  
    14     6    26 1   
    15     7    10 ar  
    16     7    18 ar  
    17     7    27 1   
    18     8    19 ar  
    19     8    28 1   
    20     9    19 ar  
    21     9    29 1   
    22    10    20 ar  
    23    10    30 1   
    24    11    13 1   
    25    11    21 1   
    26    11    31 1   
    27    12    14 1   
    28    12    32 1   
    29    13    17 1   
    30    13    36 1   
    31    13    37 1   
    32    14    18 1   
    33    14    38 1   
    34    14    39 1   
    35    15    16 ar  
    36    15    18 ar  
    37    15    40 1   
    38    16    20 ar  
    39    16    41 1   
    40    19    23 1   
    41    20    24 1   
    42    21    42 1   
    43    23    43 1   
    44    24    45 1   
    45    33    45 1   
    46    34    45 1   
    47    35    45 1   
@<TRIPOS>SUBSTRUCTURE
     1 KEQ         1 TEMP              0 ****  ****    0 ROOT
