@<TRIPOS>MOLECULE
KES
   39    42     1     0     0
SMALL
bcc


@<TRIPOS>ATOM
      1 C4           2.3730     0.8090     1.4160 cc         1 KES       0.422500
      2 C14         -3.0690     1.6860    -0.3410 ca         1 KES      -0.156000
      3 C5           5.6250     1.7170     0.9470 cc         1 KES      -0.002300
      4 C6           1.8580    -1.1230    -0.2510 c          1 KES       0.721300
      5 C11         -3.6310    -0.7870     0.7950 ca         1 KES      -0.100000
      6 C7          -0.3800    -2.0710    -0.3200 cc         1 KES      -0.085700
      7 C8          -0.2180    -3.4040    -0.7400 cc         1 KES       0.313200
      8 C9          -1.7400    -1.8340    -0.4050 cd         1 KES      -0.098300
      9 C10         -2.5500    -0.6610    -0.0760 ca         1 KES      -0.022000
     10 C12         -4.4070     0.3170     1.0970 ca         1 KES       0.012400
     11 C13         -4.1310     1.5530     0.5390 ca         1 KES      -0.092000
     12 N1           3.3850     1.5830     1.7500 nd         1 KES      -0.573100
     13 N2           4.3840     1.1900     0.9520 na         1 KES       0.065200
     14 C3           2.6860    -0.1060     0.3970 cc         1 KES      -0.370800
     15 N3           0.5650    -1.1720     0.1660 ns         1 KES      -0.455100
     16 CL          -5.7360     0.1480     2.1920 cl         1 KES      -0.096400
     17 C15         -2.2830     0.5850    -0.6480 ca         1 KES       0.137100
     18 O1          -1.2630     0.6140    -1.5650 os         1 KES      -0.352900
     19 C16         -0.3710     1.6360    -1.6040 c3         1 KES       0.608700
     20 F1          -0.9010     2.7280    -2.2030 f          1 KES      -0.255800
     21 F           -0.0210     2.0250    -0.3590 f          1 KES      -0.255800
     22 N5          -2.2790    -2.9960    -0.8320 na         1 KES       0.008400
     23 N4          -1.3840    -3.9400    -1.0540 nd         1 KES      -0.504800
     24 O            2.2940    -1.8770    -1.1060 o          1 KES      -0.567100
     25 C            6.5260     1.1950     0.0740 cd         1 KES      -0.304300
     26 C2           4.0260     0.1620     0.1050 cd         1 KES       0.430500
     27 N            4.9000    -0.3610    -0.7600 nd         1 KES      -0.610000
     28 C1           6.1070     0.1430    -0.7690 cc         1 KES       0.447200
     29 H1           1.4380     0.9330     1.9420 h4         1 KES       0.051800
     30 H3           5.8200     2.5230     1.6400 h4         1 KES       0.185000
     31 H4          -3.8430    -1.7450     1.2500 ha         1 KES       0.155000
     32 H5           0.6890    -3.9790    -0.8230 h4         1 KES       0.060100
     33 H6          -4.7400     2.4150     0.7750 ha         1 KES       0.154000
     34 H7           0.2490    -0.5220     0.8680 hn         1 KES       0.321500
     35 H8           0.5060     1.3120    -2.1620 h3         1 KES       0.121700
     36 H9          -3.2530    -3.1710    -1.0240 hn         1 KES       0.324700
     37 H10          7.5340     1.5780     0.0290 ha         1 KES       0.165000
     38 H11          6.8100    -0.2880    -1.4720 h4         1 KES       0.038100
     39 H2          -2.8930     2.6510    -0.7920 ha         1 KES       0.160000
@<TRIPOS>BOND
     1     1    12 2   
     2     1    14 1   
     3     1    29 1   
     4     2    11 ar  
     5     2    17 ar  
     6     2    39 1   
     7     3    13 1   
     8     3    25 2   
     9     3    30 1   
    10     4    14 1   
    11     4    15 1   
    12     4    24 2   
    13     5     9 ar  
    14     5    10 ar  
    15     5    31 1   
    16     6     7 1   
    17     6     8 2   
    18     6    15 1   
    19     7    23 2   
    20     7    32 1   
    21     8     9 1   
    22     8    22 1   
    23     9    17 ar  
    24    10    11 ar  
    25    10    16 1   
    26    11    33 1   
    27    12    13 1   
    28    13    26 1   
    29    14    26 2   
    30    15    34 1   
    31    17    18 1   
    32    18    19 1   
    33    19    20 1   
    34    19    21 1   
    35    19    35 1   
    36    22    23 1   
    37    22    36 1   
    38    25    28 1   
    39    25    37 1   
    40    26    27 1   
    41    27    28 2   
    42    28    38 1   
@<TRIPOS>SUBSTRUCTURE
     1 KES         1 TEMP              0 ****  ****    0 ROOT
