@<TRIPOS>MOLECULE
KES
   39    42     1     0     0
SMALL
No Charge or Current Charge


@<TRIPOS>ATOM
      1 C4           2.2410     1.0190     0.7330 cc         1 KES       0.422500
      2 C14         -2.8970     1.7230     0.1940 ca         1 KES      -0.138000
      3 C5           5.6060     1.8790     0.7660 cc         1 KES      -0.035000
      4 C6           2.0340    -1.3270    -0.3050 c          1 KES       0.654300
      5 C11         -3.7400    -0.9060     0.6430 ca         1 KES      -0.082000
      6 C7          -0.3360    -2.1190    -0.4740 cc         1 KES      -0.020400
      7 C8          -0.1840    -3.4600    -0.8880 cc         1 KES       0.247900
      8 C9          -1.6820    -1.9110    -0.3010 cd         1 KES      -0.149000
      9 C10         -2.4740    -0.6940     0.0450 ca         1 KES      -0.022000
     10 C12         -4.5550     0.1660     1.0280 ca         1 KES       0.104000
     11 C13         -4.1320     1.4800     0.8130 ca         1 KES      -0.074000
     12 N1           3.1300     1.9470     1.0590 nd         1 KES      -0.573100
     13 N2           4.3220     1.3540     0.6650 na         1 KES       0.115900
     14 C3           2.7750    -0.1420     0.1460 cc         1 KES      -0.370800
     15 N3           0.6640    -1.1960    -0.1850 ns         1 KES      -0.388100
     16 Cl          -6.1090    -0.1420     1.7930 cl         1 KES      -0.188000
     17 C15         -2.0610     0.6500    -0.2060 ca         1 KES       0.137100
     18 O1          -0.8910     0.8820    -0.9120 os         1 KES      -0.376100
     19 C16         -0.5140     2.1480    -1.5020 c3         1 KES       0.389300
     20 F1          -1.4990     2.6400    -2.2900 f          1 KES      -0.134500
     21 F           -0.2540     3.0760    -0.5520 f          1 KES      -0.134500
     22 N5          -2.2570    -3.1540    -0.6400 na         1 KES       0.008800
     23 N4          -1.3180    -4.1160    -1.0060 nd         1 KES      -0.504800
     24 O            2.5570    -2.3380    -0.7460 o          1 KES      -0.567100
     25 C            6.5560     0.9910     0.2630 cd         1 KES      -0.221000
     26 C2           4.1100     0.0870     0.1160 cd         1 KES       0.430500
     27 N            5.0330    -0.8070    -0.3890 nd         1 KES      -0.610000
     28 C1           6.2400    -0.2550    -0.2670 cc         1 KES       0.381900
     29 H1           1.2010     1.2250     0.9500 h4         1 KES       0.051800
     30 H3           5.7570     2.8610     1.1940 h4         1 KES       0.167000
     31 H4          -4.0910    -1.9130     0.8490 ha         1 KES       0.137000
     32 H5           0.7340    -3.9910    -1.0980 h4         1 KES       0.060100
     33 H6          -4.7660     2.3110     1.1150 ha         1 KES       0.136000
     34 H7           0.3500    -0.2860     0.1220 hn         1 KES       0.321500
     35 H8           0.3850     2.0240    -2.1140 h3         1 KES       0.121700
     36 H9          -3.2530    -3.3670    -0.6550 hn         1 KES       0.375000
     37 H10          7.6010     1.2810     0.2840 ha         1 KES       0.147000
     38 H11          7.0130    -0.9100    -0.6470 h4         1 KES       0.038100
     39 H2          -2.6160     2.7570     0.0250 ha         1 KES       0.142000
@<TRIPOS>BOND
     1     1    12 2   
     2     1    14 1   
     3     1    29 1   
     4     2    11 ar  
     5     2    17 ar  
     6     2    39 1   
     7     3    13 1   
     8     3    25 2   
     9     3    30 1   
    10     4    14 1   
    11     4    15 1   
    12     4    24 2   
    13     5     9 ar  
    14     5    10 ar  
    15     5    31 1   
    16     6     7 1   
    17     6     8 2   
    18     6    15 1   
    19     7    23 2   
    20     7    32 1   
    21     8     9 1   
    22     8    22 1   
    23     9    17 ar  
    24    10    11 ar  
    25    10    16 1   
    26    11    33 1   
    27    12    13 1   
    28    13    26 1   
    29    14    26 2   
    30    15    34 1   
    31    17    18 1   
    32    18    19 1   
    33    19    20 1   
    34    19    21 1   
    35    19    35 1   
    36    22    23 1   
    37    22    36 1   
    38    25    28 1   
    39    25    37 1   
    40    26    27 1   
    41    27    28 2   
    42    28    38 1   
@<TRIPOS>SUBSTRUCTURE
     1 KES         1 TEMP              0 ****  ****    0 ROOT
