@<TRIPOS>MOLECULE
KEU
   66    67     1     0     0
SMALL
No Charge or Current Charge


@<TRIPOS>ATOM
      1 O4           1.0510    -0.4100     9.5680 o          1 KEU      -0.760500
      2 C21          1.2330     0.0490     8.4510 c          1 KEU       0.713000
      3 O5           2.0560     0.9190     8.2060 o          1 KEU      -0.760500
      4 C20          0.3340    -0.4480     7.3030 c3         1 KEU      -0.201400
      5 C19         -0.9460     0.4240     7.2130 c3         1 KEU      -0.053400
      6 C17         -1.9860    -0.0550     6.1640 c3         1 KEU      -0.052300
      7 N           -1.4470    -0.0180     4.7820 ns         1 KEU      -0.413900
      8 C           -0.9170    -1.0930     4.0930 c          1 KEU       0.600700
      9 O           -0.8870    -2.2170     4.5820 o          1 KEU      -0.639100
     10 C14         -0.3850    -0.8100     2.6990 ca         1 KEU      -0.092600
     11 C13          0.1570    -1.8670     1.9350 ca         1 KEU      -0.071000
     12 C12          0.6590    -1.6410     0.6420 ca         1 KEU      -0.122500
     13 C11          0.6360    -0.3520     0.0780 ca         1 KEU      -0.128300
     14 C16          0.0950     0.7070     0.8330 ca         1 KEU      -0.122500
     15 C15         -0.4080     0.4860     2.1270 ca         1 KEU      -0.071000
     16 C10          1.1910    -0.1190    -1.3370 c3         1 KEU      -0.059400
     17 C1           0.0440     0.4470    -2.2420 c3         1 KEU      -0.071400
     18 C2           0.2610     0.3810    -3.7760 c3         1 KEU      -0.083400
     19 C3          -1.0260     0.7030    -4.5770 c3         1 KEU      -0.068400
     20 C4          -0.8430     0.7170    -6.1350 c6         1 KEU      -0.122700
     21 C9          -2.0920     1.2660    -6.8450 c          1 KEU       0.598000
     22 O1          -2.6460     2.2930    -6.4770 o          1 KEU      -0.564000
     23 N3          -2.6030     0.5700    -7.9040 ns         1 KEU      -0.507900
     24 C8          -1.8680    -0.3330    -8.7140 c6         1 KEU       0.603100
     25 N2          -2.5780    -1.5540    -8.6960 n8         1 KEU      -1.028200
     26 N1          -0.5890    -0.6590    -8.1620 n7         1 KEU      -0.915400
     27 C7          -0.3780    -0.6230    -6.7400 c6         1 KEU       0.420700
     28 N8          -1.1050    -1.7590    -6.2860 n8         1 KEU      -1.014200
     29 C5           2.5540     0.6840    -1.3420 c3         1 KEU       0.382000
     30 OA2          3.1170     0.6110    -2.6390 oh         1 KEU      -0.643000
     31 OA1          2.3060     2.0710    -1.1570 oh         1 KEU      -0.643000
     32 C6           3.6240     0.1620    -0.2900 c3         1 KEU       0.240000
     33 F2           4.8240     0.7670    -0.4720 f          1 KEU      -0.110333
     34 F1           3.2540     0.4120     0.9890 f          1 KEU      -0.110333
     35 F            3.8240    -1.1730    -0.4070 f          1 KEU      -0.110333
     36 C18         -3.2960     0.7850     6.2470 c          1 KEU       0.714000
     37 O3          -4.3010     0.2470     6.6910 o          1 KEU      -0.742000
     38 O2          -3.2960     1.9170     5.7800 o          1 KEU      -0.742000
     39 H201        -0.0130    -1.4690     7.5030 hc         1 KEU       0.011200
     40 H202         0.8490    -0.3360     6.3410 hc         1 KEU       0.011200
     41 H191        -0.6630     1.4610     6.9950 hc         1 KEU       0.050700
     42 H192        -1.4320     0.4350     8.1970 hc         1 KEU       0.050700
     43 H17         -2.2620    -1.0900     6.4030 h1         1 KEU       0.060700
     44 HN          -1.4670     0.8700     4.2990 hn         1 KEU       0.294500
     45 H13          0.1910    -2.8750     2.3430 ha         1 KEU       0.141500
     46 H12          1.0700    -2.4780     0.0810 ha         1 KEU       0.096500
     47 H16          0.0680     1.7130     0.4230 ha         1 KEU       0.096500
     48 H15         -0.8110     1.3370     2.6700 ha         1 KEU       0.141500
     49 H10          1.4290    -1.1070    -1.7510 hc         1 KEU       0.052700
     50 H11         -0.1820     1.4820    -1.9580 hc         1 KEU       0.062200
     51 H12A        -0.8640    -0.1270    -2.0150 hc         1 KEU       0.062200
     52 H21          0.6180    -0.6200    -4.0480 hc         1 KEU       0.031700
     53 H22          1.0290     1.1030    -4.0750 hc         1 KEU       0.031700
     54 H31         -1.3840     1.6850    -4.2440 hc         1 KEU       0.067700
     55 H32         -1.8120    -0.0100    -4.2970 hc         1 KEU       0.067700
     56 H4          -0.0620     1.4610    -6.3350 hc         1 KEU       0.078700
     57 HN3         -3.4350     0.9650    -8.3140 hn         1 KEU       0.310500
     58 H8          -1.8160     0.0230    -9.7530 h3         1 KEU       0.026700
     59 HN21        -3.5670    -1.3170    -8.7890 hn         1 KEU       0.392000
     60 HN22        -2.3590    -2.0330    -9.5710 hn         1 KEU       0.392000
     61 HN1         -0.2050    -1.4930    -8.6020 hn         1 KEU       0.432000
     62 H7           0.6840    -0.8030    -6.5030 h2         1 KEU       0.035700
     63 HN61        -1.8850    -1.7860    -6.9570 hn         1 KEU       0.400500
     64 HN62        -0.5580    -2.5850    -6.5260 hn         1 KEU       0.400500
     65 HA2          2.3520     0.6380    -3.2440 ho         1 KEU       0.477000
     66 HA1          3.1620     2.4610    -0.8860 ho         1 KEU       0.477000
@<TRIPOS>BOND
     1     1     2 1   
     2     2     3 1   
     3     2     4 1   
     4     4     5 1   
     5     4    39 1   
     6     4    40 1   
     7     5     6 1   
     8     5    41 1   
     9     5    42 1   
    10     6     7 1   
    11     6    36 1   
    12     6    43 1   
    13     7     8 1   
    14     7    44 1   
    15     8     9 2   
    16     8    10 1   
    17    10    11 ar  
    18    10    15 ar  
    19    11    12 ar  
    20    11    45 1   
    21    12    13 ar  
    22    12    46 1   
    23    13    14 ar  
    24    13    16 1   
    25    14    15 ar  
    26    14    47 1   
    27    15    48 1   
    28    16    17 1   
    29    16    29 1   
    30    16    49 1   
    31    17    18 1   
    32    17    50 1   
    33    17    51 1   
    34    18    19 1   
    35    18    52 1   
    36    18    53 1   
    37    19    20 1   
    38    19    54 1   
    39    19    55 1   
    40    20    21 1   
    41    20    27 1   
    42    20    56 1   
    43    21    22 2   
    44    21    23 1   
    45    23    24 1   
    46    23    57 1   
    47    24    25 1   
    48    24    26 1   
    49    24    58 1   
    50    25    59 1   
    51    25    60 1   
    52    26    27 1   
    53    26    61 1   
    54    27    28 1   
    55    27    62 1   
    56    28    63 1   
    57    28    64 1   
    58    29    30 1   
    59    29    31 1   
    60    29    32 1   
    61    30    65 1   
    62    31    66 1   
    63    32    33 1   
    64    32    34 1   
    65    32    35 1   
    66    36    37 1   
    67    36    38 1   
@<TRIPOS>SUBSTRUCTURE
     1 KEU         1 TEMP              0 ****  ****    0 ROOT
