@<TRIPOS>MOLECULE
KEU
   66    67     1     0     0
SMALL
abcg2


@<TRIPOS>ATOM
      1 O4           2.4180     0.3720     9.0780 o          1 KEU      -0.760500
      2 C21          1.4570     0.9730     8.5510 c          1 KEU       0.713000
      3 O5           1.1230     2.1550     8.7650 o          1 KEU      -0.760500
      4 C20          0.6390     0.1720     7.5230 c3         1 KEU      -0.201400
      5 C19         -0.7200     0.7590     7.1720 c3         1 KEU      -0.053400
      6 C17         -1.5230    -0.1070     6.2030 c3         1 KEU      -0.052300
      7 N           -0.8070    -0.2400     4.9550 ns         1 KEU      -0.413900
      8 C           -1.0770    -1.2010     4.0630 c          1 KEU       0.600700
      9 O           -1.6790    -2.2340     4.3340 o          1 KEU      -0.639100
     10 C14         -0.5500    -0.9640     2.6840 ca         1 KEU      -0.092600
     11 C13         -0.0480    -2.0350     1.9520 ca         1 KEU      -0.071000
     12 C12          0.4290    -1.8420     0.6670 ca         1 KEU      -0.122500
     13 C11          0.3850    -0.5880     0.0620 ca         1 KEU      -0.128300
     14 C16         -0.1680     0.4700     0.7820 ca         1 KEU      -0.122500
     15 C15         -0.6190     0.2880     2.0810 ca         1 KEU      -0.071000
     16 C10          0.8920    -0.4100    -1.3520 c3         1 KEU      -0.059400
     17 C1          -0.1970     0.2510    -2.2180 c3         1 KEU      -0.071400
     18 C2           0.0050     0.1950    -3.7300 c3         1 KEU      -0.083400
     19 C3          -1.2740     0.5650    -4.4760 c3         1 KEU      -0.068400
     20 C4          -1.0430     0.7520    -5.9720 c6         1 KEU      -0.122700
     21 C9          -2.3030     1.1900    -6.6920 c          1 KEU       0.598000
     22 O1          -3.2150     1.7750    -6.1210 o          1 KEU      -0.564000
     23 N3          -2.3470     0.9650    -8.0190 ns         1 KEU      -0.507900
     24 C8          -1.4330     0.1870    -8.8260 c6         1 KEU       0.603100
     25 N2          -2.1250    -0.9950    -9.3290 n8         1 KEU      -1.028200
     26 N1          -0.2670    -0.1190    -8.0540 n7         1 KEU      -0.915400
     27 C7          -0.4470    -0.4680    -6.6700 c6         1 KEU       0.420700
     28 N8          -1.3110    -1.6230    -6.4440 n8         1 KEU      -1.014200
     29 C5           2.2530     0.3360    -1.4190 c3         1 KEU       0.382000
     30 OA2          2.8190     0.2740    -2.6830 oh         1 KEU      -0.643000
     31 OA1          2.1490     1.6940    -1.1550 oh         1 KEU      -0.643000
     32 C6           3.3140    -0.2630    -0.4550 c3         1 KEU       0.240000
     33 F2           4.5160     0.2670    -0.6890 f          1 KEU      -0.110333
     34 F1           3.0390    -0.0340     0.8340 f          1 KEU      -0.110333
     35 F            3.4260    -1.5880    -0.6120 f          1 KEU      -0.110333
     36 C18         -2.9500     0.4660     5.9810 c          1 KEU       0.714000
     37 O3          -3.6680     0.5030     7.0010 o          1 KEU      -0.742000
     38 O2          -3.2500     0.8410     4.8350 o          1 KEU      -0.742000
     39 H201         0.5140    -0.8530     7.8890 hc         1 KEU       0.011200
     40 H202         1.2510     0.0780     6.6180 hc         1 KEU       0.011200
     41 H191        -0.5970     1.7620     6.7500 hc         1 KEU       0.050700
     42 H192        -1.3120     0.8820     8.0780 hc         1 KEU       0.050700
     43 H17         -1.6260    -1.1040     6.6410 h1         1 KEU       0.060700
     44 HN          -0.3440     0.5900     4.6180 hn         1 KEU       0.294500
     45 H13         -0.0160    -3.0230     2.3920 ha         1 KEU       0.141500
     46 H12          0.8310    -2.6870     0.1220 ha         1 KEU       0.096500
     47 H16         -0.2880     1.4480     0.3330 ha         1 KEU       0.096500
     48 H15         -1.0680     1.1230     2.6060 ha         1 KEU       0.141500
     49 H10          1.0610    -1.4160    -1.7550 hc         1 KEU       0.052700
     50 H11         -0.3500     1.2890    -1.9130 hc         1 KEU       0.062200
     51 H12A        -1.1280    -0.2700    -1.9790 hc         1 KEU       0.062200
     52 H21          0.3260    -0.8150    -4.0110 hc         1 KEU       0.031700
     53 H22          0.8010     0.8760    -4.0380 hc         1 KEU       0.031700
     54 H31         -1.6650     1.4970    -4.0620 hc         1 KEU       0.067700
     55 H32         -2.0430    -0.1920    -4.2990 hc         1 KEU       0.067700
     56 H4          -0.3230     1.5700    -6.1030 hc         1 KEU       0.078700
     57 HN3         -3.1720     1.3040    -8.4930 hn         1 KEU       0.310500
     58 H8          -1.1110     0.8290    -9.6580 h3         1 KEU       0.026700
     59 HN21        -2.8270    -0.7020   -10.0020 hn         1 KEU       0.392000
     60 HN22        -1.4610    -1.5370    -9.8720 hn         1 KEU       0.392000
     61 HN1          0.3390    -0.7620    -8.5450 hn         1 KEU       0.432000
     62 H7           0.5670    -0.6300    -6.2820 h2         1 KEU       0.035700
     63 HN61        -1.0760    -2.3520    -7.1060 hn         1 KEU       0.400500
     64 HN62        -1.1250    -2.0100    -5.5260 hn         1 KEU       0.400500
     65 HA2          2.5020    -0.4970    -3.1630 ho         1 KEU       0.477000
     66 HA1          1.7960     1.8520    -0.2710 ho         1 KEU       0.477000
@<TRIPOS>BOND
     1     1     2 1   
     2     2     3 1   
     3     2     4 1   
     4     4     5 1   
     5     4    39 1   
     6     4    40 1   
     7     5     6 1   
     8     5    41 1   
     9     5    42 1   
    10     6     7 1   
    11     6    36 1   
    12     6    43 1   
    13     7     8 1   
    14     7    44 1   
    15     8     9 2   
    16     8    10 1   
    17    10    11 ar  
    18    10    15 ar  
    19    11    12 ar  
    20    11    45 1   
    21    12    13 ar  
    22    12    46 1   
    23    13    14 ar  
    24    13    16 1   
    25    14    15 ar  
    26    14    47 1   
    27    15    48 1   
    28    16    17 1   
    29    16    29 1   
    30    16    49 1   
    31    17    18 1   
    32    17    50 1   
    33    17    51 1   
    34    18    19 1   
    35    18    52 1   
    36    18    53 1   
    37    19    20 1   
    38    19    54 1   
    39    19    55 1   
    40    20    21 1   
    41    20    27 1   
    42    20    56 1   
    43    21    22 2   
    44    21    23 1   
    45    23    24 1   
    46    23    57 1   
    47    24    25 1   
    48    24    26 1   
    49    24    58 1   
    50    25    59 1   
    51    25    60 1   
    52    26    27 1   
    53    26    61 1   
    54    27    28 1   
    55    27    62 1   
    56    28    63 1   
    57    28    64 1   
    58    29    30 1   
    59    29    31 1   
    60    29    32 1   
    61    30    65 1   
    62    31    66 1   
    63    32    33 1   
    64    32    34 1   
    65    32    35 1   
    66    36    37 1   
    67    36    38 1   
@<TRIPOS>SUBSTRUCTURE
     1 KEU         1 TEMP              0 ****  ****    0 ROOT
