@<TRIPOS>MOLECULE
KEV
   45    48     1     0     0
SMALL
abcg2


@<TRIPOS>ATOM
      1 C4           1.9310    -1.6590     0.4810 ca         1 KEV       0.362900
      2 C14         -3.8020    -2.3110    -0.5980 ca         1 KEV      -0.058000
      3 C5           2.4250    -0.3860     0.3360 ca         1 KEV      -0.169600
      4 C6           3.7920    -0.2880    -0.0260 ca         1 KEV      -0.020000
      5 C11         -2.6950     0.1740     0.0450 ca         1 KEV      -0.140500
      6 C7           1.6100     0.8240     0.6140 c          1 KEV       0.628700
      7 C8          -0.6670     1.6860     0.4890 cc         1 KEV      -0.052400
      8 C9          -0.5590     3.0080     0.8640 cd         1 KEV      -0.177000
      9 C10         -2.0550     1.4500     0.3910 cc         1 KEV       0.276500
     10 C12         -2.3120    -0.9750     0.7290 ca         1 KEV      -0.069000
     11 C13         -2.8540    -2.2070     0.4030 ca         1 KEV       0.074000
     12 N1           2.6300    -2.8040     0.2940 nb         1 KEV      -0.692000
     13 N2           4.5510     0.7790    -0.2470 nc         1 KEV      -0.256400
     14 C3           3.8880    -2.7270    -0.0560 ca         1 KEV       0.434900
     15 N3           0.3190     0.7410     0.2230 ns         1 KEV      -0.378100
     16 CL          -2.3320    -3.6200     1.2620 cl         1 KEV      -0.200000
     17 C15         -4.2010    -1.1720    -1.2830 ca         1 KEV      -0.200000
     18 C16         -3.6520     0.0720    -0.9800 ca         1 KEV       0.169100
     19 O1          -3.9670     1.2050    -1.6220 os         1 KEV      -0.317100
     20 C17         -4.9160     1.1540    -2.6700 c3         1 KEV       0.145900
     21 N5          -2.7300     2.5520     0.6770 nd         1 KEV      -0.485800
     22 N4          -1.8220     3.4680     0.9590 na         1 KEV       0.136800
     23 C18         -2.2320     4.7930     1.3600 c3         1 KEV       0.076900
     24 O            2.0790     1.8100     1.1570 o          1 KEV      -0.573100
     25 C2           4.5220    -1.4880    -0.2310 ca         1 KEV      -0.228000
     26 C1           5.7960    -1.0550    -0.5920 cc         1 KEV      -0.165100
     27 N            5.7390     0.2730    -0.5810 na         1 KEV       0.156500
     28 C            6.8180     1.1800    -0.9030 c3         1 KEV       0.057900
     29 H1           0.9030    -1.8110     0.7960 h4         1 KEV       0.021100
     30 H3           0.2930     3.6360     1.0540 h4         1 KEV       0.179000
     31 H4          -1.5940    -0.8980     1.5360 ha         1 KEV       0.136000
     32 H5           4.4260    -3.6570    -0.2080 h4         1 KEV       0.021100
     33 H6           0.0370    -0.0520    -0.3350 hn         1 KEV       0.330500
     34 H7          -4.9410    -1.2800    -2.0630 ha         1 KEV       0.122000
     35 H8          -4.5880     0.5060    -3.4870 h1         1 KEV       0.042033
     36 H9          -5.8930     0.8160    -2.3190 h1         1 KEV       0.042033
     37 H10         -5.0110     2.1700    -3.0460 h1         1 KEV       0.042033
     38 H11         -2.8990     5.2180     0.6140 h1         1 KEV       0.056367
     39 H12         -2.7410     4.7620     2.3220 h1         1 KEV       0.056367
     40 H13         -1.3510     5.4230     1.4460 h1         1 KEV       0.056367
     41 H14          6.6940    -1.5930    -0.8480 h4         1 KEV       0.231000
     42 H15          6.5710     1.7420    -1.8010 h1         1 KEV       0.066367
     43 H16          6.9730     1.8700    -0.0770 h1         1 KEV       0.066367
     44 H17          7.7250     0.6080    -1.0720 h1         1 KEV       0.066367
     45 H2          -4.2350    -3.2680    -0.8530 ha         1 KEV       0.128000
@<TRIPOS>BOND
     1     1     3 ar  
     2     1    12 ar  
     3     1    29 1   
     4     2    11 ar  
     5     2    17 ar  
     6     2    45 1   
     7     3     4 ar  
     8     3     6 1   
     9     4    13 2   
    10     4    25 ar  
    11     5     9 1   
    12     5    10 ar  
    13     5    18 ar  
    14     6    15 1   
    15     6    24 2   
    16     7     8 2   
    17     7     9 1   
    18     7    15 1   
    19     8    22 1   
    20     8    30 1   
    21     9    21 2   
    22    10    11 ar  
    23    10    31 1   
    24    11    16 1   
    25    12    14 ar  
    26    13    27 1   
    27    14    25 ar  
    28    14    32 1   
    29    15    33 1   
    30    17    18 ar  
    31    17    34 1   
    32    18    19 1   
    33    19    20 1   
    34    20    35 1   
    35    20    36 1   
    36    20    37 1   
    37    21    22 1   
    38    22    23 1   
    39    23    38 1   
    40    23    39 1   
    41    23    40 1   
    42    25    26 2   
    43    26    27 1   
    44    26    41 1   
    45    27    28 1   
    46    28    42 1   
    47    28    43 1   
    48    28    44 1   
@<TRIPOS>SUBSTRUCTURE
     1 KEV         1 TEMP              0 ****  ****    0 ROOT
