@<TRIPOS>MOLECULE
KEV
   45    48     1     0     0
SMALL
No Charge or Current Charge


@<TRIPOS>ATOM
      1 C4           1.9870    -1.5050    -0.5900 ca         1 KEV       0.362900
      2 C14         -3.9490    -2.3820    -0.2610 ca         1 KEV      -0.058000
      3 C5           2.5880    -0.2850    -0.1860 ca         1 KEV      -0.169600
      4 C6           4.0020    -0.2740    -0.1230 ca         1 KEV      -0.020000
      5 C11         -2.7090     0.1690    -0.0900 ca         1 KEV      -0.140500
      6 C7           1.7410     0.9240     0.1570 c          1 KEV       0.628700
      7 C8          -0.6570     1.7110     0.1960 cc         1 KEV      -0.052400
      8 C9          -0.4920     3.0360     0.4670 cd         1 KEV      -0.177000
      9 C10         -2.0580     1.4890     0.0710 cc         1 KEV       0.276500
     10 C12         -2.1090    -0.9810     0.4810 ca         1 KEV      -0.069000
     11 C13         -2.7170    -2.2410     0.3860 ca         1 KEV       0.074000
     12 N1           2.6750    -2.6330    -0.9130 nb         1 KEV      -0.692000
     13 N2           4.8590     0.7730     0.2360 nc         1 KEV      -0.256400
     14 C3           4.0260    -2.5930    -0.8450 ca         1 KEV       0.434900
     15 N3           0.3690     0.7800    -0.0090 ns         1 KEV      -0.378100
     16 Cl          -1.9370    -3.6440     1.1060 cl         1 KEV      -0.200000
     17 C15         -4.5810    -1.2540    -0.8060 ca         1 KEV      -0.200000
     18 C16         -3.9790     0.0240    -0.7180 ca         1 KEV       0.169100
     19 O1          -4.5820     1.1270    -1.2970 os         1 KEV      -0.317100
     20 C17         -5.8600     1.0670    -1.9530 c3         1 KEV       0.145900
     21 N5          -2.7540     2.5960     0.2720 nd         1 KEV      -0.485800
     22 N4          -1.7840     3.5550     0.5040 na         1 KEV       0.136800
     23 C18         -2.1570     4.9520     0.7640 c3         1 KEV       0.076900
     24 O            2.2310     1.9680     0.5690 o          1 KEV      -0.573100
     25 C2           4.6800    -1.4190    -0.4520 ca         1 KEV      -0.228000
     26 C1           6.0650    -1.1250    -0.3040 cc         1 KEV      -0.165100
     27 N            6.1270     0.1980     0.1100 na         1 KEV       0.156500
     28 C            7.3320     0.9840     0.4010 c3         1 KEV       0.057900
     29 H1           0.9060    -1.6060    -0.6630 h4         1 KEV       0.021100
     30 H3           0.3920     3.6450     0.6130 h4         1 KEV       0.179000
     31 H4          -1.1910    -0.9080     1.0540 ha         1 KEV       0.136000
     32 H5           4.5720    -3.4990    -1.1050 h4         1 KEV       0.021100
     33 H6           0.0910    -0.1290    -0.3520 hn         1 KEV       0.330500
     34 H7          -5.5390    -1.3970    -1.2980 ha         1 KEV       0.122000
     35 H8          -5.8270     0.3840    -2.8120 h1         1 KEV       0.042033
     36 H9          -6.6400     0.7260    -1.2600 h1         1 KEV       0.042033
     37 H10         -6.1440     2.0600    -2.3220 h1         1 KEV       0.042033
     38 H11         -2.7510     5.3350    -0.0750 h1         1 KEV       0.056367
     39 H12         -2.7490     5.0070     1.6850 h1         1 KEV       0.056367
     40 H13         -1.2530     5.5630     0.8760 h1         1 KEV       0.056367
     41 H14          6.9660    -1.7110    -0.4500 h4         1 KEV       0.231000
     42 H15          7.4590     1.7540    -0.3690 h1         1 KEV       0.066367
     43 H16          7.2300     1.4620     1.3820 h1         1 KEV       0.066367
     44 H17          8.2100     0.3280     0.4070 h1         1 KEV       0.066367
     45 H2          -4.4180    -3.3610    -0.3310 ha         1 KEV       0.128000
@<TRIPOS>BOND
     1     1     3 ar  
     2     1    12 ar  
     3     1    29 1   
     4     2    11 ar  
     5     2    17 ar  
     6     2    45 1   
     7     3     4 ar  
     8     3     6 1   
     9     4    13 2   
    10     4    25 ar  
    11     5     9 1   
    12     5    10 ar  
    13     5    18 ar  
    14     6    15 1   
    15     6    24 2   
    16     7     8 2   
    17     7     9 1   
    18     7    15 1   
    19     8    22 1   
    20     8    30 1   
    21     9    21 2   
    22    10    11 ar  
    23    10    31 1   
    24    11    16 1   
    25    12    14 ar  
    26    13    27 1   
    27    14    25 ar  
    28    14    32 1   
    29    15    33 1   
    30    17    18 ar  
    31    17    34 1   
    32    18    19 1   
    33    19    20 1   
    34    20    35 1   
    35    20    36 1   
    36    20    37 1   
    37    21    22 1   
    38    22    23 1   
    39    23    38 1   
    40    23    39 1   
    41    23    40 1   
    42    25    26 2   
    43    26    27 1   
    44    26    41 1   
    45    27    28 1   
    46    28    42 1   
    47    28    43 1   
    48    28    44 1   
@<TRIPOS>SUBSTRUCTURE
     1 KEV         1 TEMP              0 ****  ****    0 ROOT
