@<TRIPOS>MOLECULE
KEW
   42    44     1     0     0
SMALL
No Charge or Current Charge


@<TRIPOS>ATOM
      1 C02         -6.8920    18.3840   269.2650 ca         1 KEW       0.160100
      2 C03         -6.9780    17.2200   268.4860 ca         1 KEW      -0.149000
      3 C04         -6.6220    17.2510   267.1260 ca         1 KEW      -0.062000
      4 C05         -6.1740    18.4500   266.5370 ca         1 KEW      -0.125300
      5 C06         -5.7830    18.4800   265.0620 c3         1 KEW      -0.037100
      6 C07         -6.9140    18.9540   264.1020 c6         1 KEW       0.038700
      7 C08         -8.0790    17.9180   264.0940 c          1 KEW       0.567000
      8 C10         -9.5960    19.6260   265.2120 c6         1 KEW       0.041700
      9 C11         -9.8690    19.3560   266.7180 c3         1 KEW      -0.039100
     10 C12        -10.9750    18.3330   266.9560 ca         1 KEW      -0.133300
     11 C13        -10.6560    16.9990   267.2750 ca         1 KEW      -0.066000
     12 C14        -11.6790    16.0590   267.4860 ca         1 KEW      -0.175500
     13 C15        -13.0230    16.4460   267.3800 ca         1 KEW       0.143100
     14 C17        -13.3480    17.7740   267.0610 ca         1 KEW      -0.175500
     15 C18        -12.3260    18.7160   266.8490 ca         1 KEW      -0.066000
     16 C19         -8.4880    20.7100   265.0570 c          1 KEW       0.567000
     17 C23         -6.0800    19.6160   267.3240 ca         1 KEW      -0.053000
     18 C24         -6.4420    19.5860   268.6810 ca         1 KEW       0.014000
     19 N09         -9.3190    18.3560   264.4940 ns         1 KEW      -0.492900
     20 N20         -7.3310    20.3460   264.4070 ns         1 KEW      -0.498900
     21 O01         -7.2470    18.3380   270.5830 oh         1 KEW      -0.524100
     22 O16        -14.0080    15.5270   267.5860 oh         1 KEW      -0.531100
     23 O21         -8.6440    21.8620   265.4320 o          1 KEW      -0.556000
     24 O22         -7.9350    16.7740   263.6920 o          1 KEW      -0.564000
     25 Cl1         -6.3310    21.0640   269.6370 cl         1 KEW      -0.201000
     26 H1          -7.3230    16.2930   268.9360 ha         1 KEW       0.136000
     27 H2          -6.6960    16.3420   266.5320 ha         1 KEW       0.132000
     28 H3          -5.4350    17.4870   264.7510 hc         1 KEW       0.066700
     29 H4          -4.9110    19.1340   264.9340 hc         1 KEW       0.066700
     30 H5          -6.5160    18.9480   263.0770 h1         1 KEW       0.082700
     31 H6         -10.5020    20.0640   264.7700 h1         1 KEW       0.081700
     32 H7          -8.9460    19.0210   267.2030 hc         1 KEW       0.070700
     33 H8         -10.1330    20.2970   267.2180 hc         1 KEW       0.070700
     34 H9          -9.6170    16.6870   267.3550 ha         1 KEW       0.117500
     35 H10        -11.4290    15.0300   267.7310 ha         1 KEW       0.123000
     36 H11        -14.3870    18.0830   266.9760 ha         1 KEW       0.123000
     37 H12        -12.5850    19.7440   266.6010 ha         1 KEW       0.117500
     38 H13         -5.7310    20.5470   266.8830 ha         1 KEW       0.130000
     39 H14        -10.0600    17.6670   264.4440 hn         1 KEW       0.330500
     40 H15         -6.6600    21.0920   264.2630 hn         1 KEW       0.321500
     41 H16         -7.1170    19.2360   270.9590 ho         1 KEW       0.481000
     42 H17        -14.8750    15.9710   267.4720 ho         1 KEW       0.466000
@<TRIPOS>BOND
     1     1     2 ar  
     2     1    18 ar  
     3     1    21 1   
     4     2     3 ar  
     5     2    26 1   
     6     3     4 ar  
     7     3    27 1   
     8     4     5 1   
     9     4    17 ar  
    10     5     6 1   
    11     5    28 1   
    12     5    29 1   
    13     6     7 1   
    14     6    20 1   
    15     6    30 1   
    16     7    19 1   
    17     7    24 2   
    18     8     9 1   
    19     8    16 1   
    20     8    19 1   
    21     8    31 1   
    22     9    10 1   
    23     9    32 1   
    24     9    33 1   
    25    10    11 ar  
    26    10    15 ar  
    27    11    12 ar  
    28    11    34 1   
    29    12    13 ar  
    30    12    35 1   
    31    13    14 ar  
    32    13    22 1   
    33    14    15 ar  
    34    14    36 1   
    35    15    37 1   
    36    16    20 1   
    37    16    23 2   
    38    17    18 ar  
    39    17    38 1   
    40    18    25 1   
    41    19    39 1   
    42    20    40 1   
    43    21    41 1   
    44    22    42 1   
@<TRIPOS>SUBSTRUCTURE
     1 KEW         1 TEMP              0 ****  ****    0 ROOT
