@<TRIPOS>MOLECULE
KEW
   42    44     1     0     0
SMALL
bcc


@<TRIPOS>ATOM
      1 C02         -6.9400    18.2740   269.2010 ca         1 KEW       0.160100
      2 C03         -6.9380    17.1540   268.3730 ca         1 KEW      -0.167000
      3 C04         -6.5500    17.2540   267.0490 ca         1 KEW      -0.080000
      4 C05         -6.1470    18.4700   266.5000 ca         1 KEW      -0.125300
      5 C06         -5.7490    18.5760   265.0570 c3         1 KEW      -0.037100
      6 C07         -6.9120    18.9670   264.1250 c6         1 KEW       0.038700
      7 C08         -7.9960    17.9120   264.1600 c          1 KEW       0.709500
      8 C10         -9.5690    19.5400   265.2150 c6         1 KEW       0.041700
      9 C11         -9.8630    19.4010   266.7200 c3         1 KEW      -0.039100
     10 C12        -10.9610    18.4120   266.9890 ca         1 KEW      -0.133300
     11 C13        -10.6790    17.1010   267.3670 ca         1 KEW      -0.084000
     12 C14        -11.6880    16.1770   267.5880 ca         1 KEW      -0.193500
     13 C15        -13.0190    16.5510   267.4290 ca         1 KEW       0.143100
     14 C17        -13.3200    17.8580   267.0490 ca         1 KEW      -0.193500
     15 C18        -12.2980    18.7690   266.8320 ca         1 KEW      -0.084000
     16 C19         -8.5570    20.6400   264.9750 c          1 KEW       0.709500
     17 C23         -6.1440    19.5890   267.3240 ca         1 KEW      -0.071000
     18 C24         -6.5360    19.4890   268.6490 ca         1 KEW      -0.077600
     19 N09         -9.1940    18.2770   264.6250 ns         1 KEW      -0.559900
     20 N20         -7.3970    20.2960   264.4060 ns         1 KEW      -0.565900
     21 O01         -7.3220    18.1230   270.4770 oh         1 KEW      -0.485100
     22 O16        -13.9690    15.6220   267.6560 oh         1 KEW      -0.492100
     23 O21         -8.8350    21.7900   265.2790 o          1 KEW      -0.631500
     24 O22         -7.7490    16.7830   263.7610 o          1 KEW      -0.639500
     25 CL1         -6.5270    20.9020   269.6570 cl         1 KEW      -0.109400
     26 H1          -7.2420    16.1990   268.7830 ha         1 KEW       0.154000
     27 H2          -6.5560    16.3630   266.4330 ha         1 KEW       0.150000
     28 H3          -5.3380    17.6290   264.7050 hc         1 KEW       0.066700
     29 H4          -4.9600    19.3220   264.9320 hc         1 KEW       0.066700
     30 H5          -6.5230    18.9620   263.1030 h1         1 KEW       0.082700
     31 H6         -10.4860    19.8770   264.7220 h1         1 KEW       0.081700
     32 H7          -8.9490    19.0970   267.2330 hc         1 KEW       0.070700
     33 H8         -10.1390    20.3850   267.1020 hc         1 KEW       0.070700
     34 H9          -9.6490    16.7950   267.5020 ha         1 KEW       0.135500
     35 H10        -11.4450    15.1650   267.8870 ha         1 KEW       0.141000
     36 H11        -14.3520    18.1670   266.9250 ha         1 KEW       0.141000
     37 H12        -12.5530    19.7810   266.5400 ha         1 KEW       0.135500
     38 H13         -5.8250    20.5500   266.9420 ha         1 KEW       0.148000
     39 H14         -9.9050    17.5580   264.6280 hn         1 KEW       0.330500
     40 H15         -6.7470    21.0520   264.2300 hn         1 KEW       0.321500
     41 H16         -7.2890    18.9620   270.9550 ho         1 KEW       0.442000
     42 H17        -14.8460    15.9980   267.5260 ho         1 KEW       0.427000
@<TRIPOS>BOND
     1     1     2 ar  
     2     1    18 ar  
     3     1    21 1   
     4     2     3 ar  
     5     2    26 1   
     6     3     4 ar  
     7     3    27 1   
     8     4     5 1   
     9     4    17 ar  
    10     5     6 1   
    11     5    28 1   
    12     5    29 1   
    13     6     7 1   
    14     6    20 1   
    15     6    30 1   
    16     7    19 1   
    17     7    24 2   
    18     8     9 1   
    19     8    16 1   
    20     8    19 1   
    21     8    31 1   
    22     9    10 1   
    23     9    32 1   
    24     9    33 1   
    25    10    11 ar  
    26    10    15 ar  
    27    11    12 ar  
    28    11    34 1   
    29    12    13 ar  
    30    12    35 1   
    31    13    14 ar  
    32    13    22 1   
    33    14    15 ar  
    34    14    36 1   
    35    15    37 1   
    36    16    20 1   
    37    16    23 2   
    38    17    18 ar  
    39    17    38 1   
    40    18    25 1   
    41    19    39 1   
    42    20    40 1   
    43    21    41 1   
    44    22    42 1   
@<TRIPOS>SUBSTRUCTURE
     1 KEW         1 TEMP              0 ****  ****    0 ROOT
