@<TRIPOS>MOLECULE
KEY
   42    45     1     0     0
SMALL
No Charge or Current Charge


@<TRIPOS>ATOM
      1 C4          -2.4990    -0.1120     0.1990 ca         1 KEY      -0.145500
      2 C14          4.2090     2.4730    -0.8700 ca         1 KEY       0.443900
      3 C5          -2.1070     0.9880     0.9910 ca         1 KEY      -0.070000
      4 C6          -2.6650     2.2570     0.7730 ca         1 KEY       0.074000
      5 C11          1.8630    -0.9850     0.1540 c          1 KEY       0.633700
      6 C7          -3.6240     2.4400    -0.2340 ca         1 KEY      -0.056000
      7 C8          -4.0270     1.3510    -1.0270 ca         1 KEY      -0.199000
      8 C9          -3.4690     0.0690    -0.8150 ca         1 KEY       0.171100
      9 C10         -4.7990    -0.9230    -2.6500 c3         1 KEY       0.145900
     10 C12          2.6980     0.2150    -0.2030 ca         1 KEY      -0.224600
     11 C13          2.1290     1.4770    -0.4990 ca         1 KEY       0.394900
     12 N1          -2.6300    -2.4870     0.7600 nc         1 KEY      -0.480800
     13 N2           0.4890    -0.8040     0.1680 ns         1 KEY      -0.364100
     14 C3          -1.8990    -1.4280     0.4640 cd         1 KEY       0.282500
     15 N3           2.8580     2.5820    -0.8250 nb         1 KEY      -0.701000
     16 O1           2.3840    -2.0620     0.4200 o          1 KEY      -0.621100
     17 C16          4.1000     0.1560    -0.2630 ca         1 KEY       0.024800
     18 N4           4.9850    -0.8810    -0.0410 na         1 KEY      -0.036400
     19 N5           6.3120    -0.4410    -0.2270 nc         1 KEY      -0.508100
     20 C17          6.2000     0.8580    -0.5580 cd         1 KEY       0.374800
     21 C15          4.8180     1.2530    -0.5860 ca         1 KEY      -0.309900
     22 C2          -0.5140    -1.7250     0.4610 cd         1 KEY      -0.062400
     23 C1          -0.3700    -3.0460     0.7720 cc         1 KEY      -0.172000
     24 N           -1.6830    -3.4770     0.9460 na         1 KEY       0.137800
     25 C           -2.1090    -4.8390     1.2940 c3         1 KEY       0.075900
     26 O           -3.8230    -1.0140    -1.5980 os         1 KEY      -0.318100
     27 Cl          -2.1620     3.6180     1.7670 cl         1 KEY      -0.198000
     28 H2          -1.3760     0.8570     1.7860 ha         1 KEY       0.136000
     29 H3          -4.0540     3.4250    -0.3990 ha         1 KEY       0.129000
     30 H4          -4.7690     1.5250    -1.8010 ha         1 KEY       0.123000
     31 H5          -4.9270    -1.8990    -3.1340 h1         1 KEY       0.043033
     32 H6          -5.7730    -0.6100    -2.2530 h1         1 KEY       0.043033
     33 H7          -4.4810    -0.2040    -3.4160 h1         1 KEY       0.043033
     34 H8           1.0510     1.6300    -0.4790 h4         1 KEY       0.021100
     35 H9           0.2000     0.1340    -0.0770 hn         1 KEY       0.333500
     36 H10          4.7430    -1.8370     0.2210 hn         1 KEY       0.402000
     37 H11          7.0940     1.4370    -0.7570 h4         1 KEY       0.055800
     38 H12          0.4930    -3.6900     0.8760 h4         1 KEY       0.178000
     39 H13         -2.7670    -5.2290     0.5090 h1         1 KEY       0.058033
     40 H14         -1.2320    -5.4900     1.3880 h1         1 KEY       0.058033
     41 H15         -2.6500    -4.8210     2.2480 h1         1 KEY       0.058033
     42 H1           4.7840     3.3610    -1.1320 h4         1 KEY       0.027100
@<TRIPOS>BOND
     1     1     3 ar  
     2     1     8 ar  
     3     1    14 1   
     4     2    15 ar  
     5     2    21 ar  
     6     2    42 1   
     7     3     4 ar  
     8     3    28 1   
     9     4     6 ar  
    10     4    27 1   
    11     5    10 1   
    12     5    13 1   
    13     5    16 2   
    14     6     7 ar  
    15     6    29 1   
    16     7     8 ar  
    17     7    30 1   
    18     8    26 1   
    19     9    26 1   
    20     9    31 1   
    21     9    32 1   
    22     9    33 1   
    23    10    11 ar  
    24    10    17 ar  
    25    11    15 ar  
    26    11    34 1   
    27    12    14 2   
    28    12    24 1   
    29    13    22 1   
    30    13    35 1   
    31    14    22 1   
    32    17    18 1   
    33    17    21 ar  
    34    18    19 1   
    35    18    36 1   
    36    19    20 2   
    37    20    21 1   
    38    20    37 1   
    39    22    23 2   
    40    23    24 1   
    41    23    38 1   
    42    24    25 1   
    43    25    39 1   
    44    25    40 1   
    45    25    41 1   
@<TRIPOS>SUBSTRUCTURE
     1 KEY         1 TEMP              0 ****  ****    0 ROOT
