@<TRIPOS>MOLECULE
KEY
   42    45     1     0     0
SMALL
abcg2


@<TRIPOS>ATOM
      1 C4          -2.4970    -0.1210     0.1030 ca         1 KEY      -0.145500
      2 C14          4.2550     2.5160    -0.5810 ca         1 KEY       0.443900
      3 C5          -2.0240     1.0040     0.7720 ca         1 KEY      -0.070000
      4 C6          -2.5600     2.2550     0.5180 ca         1 KEY       0.074000
      5 C11          1.8210    -0.8780     0.2730 c          1 KEY       0.633700
      6 C7          -3.5900     2.4030    -0.3910 ca         1 KEY      -0.056000
      7 C8          -4.0790     1.2890    -1.0590 ca         1 KEY      -0.199000
      8 C9          -3.5380     0.0260    -0.8290 ca         1 KEY       0.171100
      9 C10         -4.9600    -0.9860    -2.4360 c3         1 KEY       0.145900
     10 C12          2.6630     0.3000    -0.0390 ca         1 KEY      -0.224600
     11 C13          2.2060     1.6020    -0.1230 ca         1 KEY       0.394900
     12 N1          -2.5330    -2.5140     0.6780 nc         1 KEY      -0.480800
     13 N2           0.5030    -0.7500     0.0170 ns         1 KEY      -0.364100
     14 C3          -1.8610    -1.4190     0.3620 cd         1 KEY       0.282500
     15 N3           2.9620     2.6780    -0.3870 nb         1 KEY      -0.701000
     16 O1           2.3160    -1.8980     0.7320 o          1 KEY      -0.621100
     17 C16          4.0490     0.1470    -0.2120 ca         1 KEY       0.024800
     18 N4           4.8770    -0.9090    -0.1840 na         1 KEY      -0.036400
     19 N5           6.1490    -0.5650    -0.4300 nc         1 KEY      -0.508100
     20 C17          6.1660     0.7250    -0.6250 cd         1 KEY       0.374800
     21 C15          4.8550     1.2610    -0.4990 ca         1 KEY      -0.309900
     22 C2          -0.4750    -1.6860     0.3390 cd         1 KEY      -0.062400
     23 C1          -0.3640    -3.0180     0.6740 cc         1 KEY      -0.172000
     24 N           -1.6250    -3.4540     0.8670 na         1 KEY       0.137800
     25 C           -2.0320    -4.7930     1.2190 c3         1 KEY       0.075900
     26 O           -3.9400    -1.0850    -1.4600 os         1 KEY      -0.318100
     27 CL          -1.9260     3.6380     1.3510 cl         1 KEY      -0.198000
     28 H2          -1.2390     0.8930     1.5090 ha         1 KEY       0.136000
     29 H3          -4.0180     3.3760    -0.5900 ha         1 KEY       0.129000
     30 H4          -4.8810     1.4310    -1.7690 ha         1 KEY       0.123000
     31 H5          -5.1040    -1.9880    -2.8300 h1         1 KEY       0.043033
     32 H6          -5.9030    -0.6380    -2.0060 h1         1 KEY       0.043033
     33 H7          -4.6780    -0.3210    -3.2560 h1         1 KEY       0.043033
     34 H8           1.1580     1.8220     0.0550 h4         1 KEY       0.021100
     35 H9           0.1850     0.0590    -0.4940 hn         1 KEY       0.333500
     36 H10          4.6410    -1.8680     0.0130 hn         1 KEY       0.402000
     37 H11          7.0870     1.2420    -0.8430 h4         1 KEY       0.055800
     38 H12          0.4860    -3.6670     0.7800 h4         1 KEY       0.178000
     39 H13         -2.5700    -5.2580     0.3950 h1         1 KEY       0.058033
     40 H14         -1.1490    -5.3840     1.4420 h1         1 KEY       0.058033
     41 H15         -2.6730    -4.7710     2.0980 h1         1 KEY       0.058033
     42 H1           4.8390     3.4030    -0.8030 h4         1 KEY       0.027100
@<TRIPOS>BOND
     1     1     3 ar  
     2     1     8 ar  
     3     1    14 1   
     4     2    15 ar  
     5     2    21 ar  
     6     2    42 1   
     7     3     4 ar  
     8     3    28 1   
     9     4     6 ar  
    10     4    27 1   
    11     5    10 1   
    12     5    13 1   
    13     5    16 2   
    14     6     7 ar  
    15     6    29 1   
    16     7     8 ar  
    17     7    30 1   
    18     8    26 1   
    19     9    26 1   
    20     9    31 1   
    21     9    32 1   
    22     9    33 1   
    23    10    11 ar  
    24    10    17 ar  
    25    11    15 ar  
    26    11    34 1   
    27    12    14 2   
    28    12    24 1   
    29    13    22 1   
    30    13    35 1   
    31    14    22 1   
    32    17    18 1   
    33    17    21 ar  
    34    18    19 1   
    35    18    36 1   
    36    19    20 2   
    37    20    21 1   
    38    20    37 1   
    39    22    23 2   
    40    23    24 1   
    41    23    38 1   
    42    24    25 1   
    43    25    39 1   
    44    25    40 1   
    45    25    41 1   
@<TRIPOS>SUBSTRUCTURE
     1 KEY         1 TEMP              0 ****  ****    0 ROOT
