@<TRIPOS>MOLECULE
KEZ
   44    46     1     0     0
SMALL
abcg2


@<TRIPOS>ATOM
      1 C02         -6.9720    18.1420   268.5470 ca         1 KEZ       0.170100
      2 C03         -6.9810    17.0290   267.7120 ca         1 KEZ      -0.160000
      3 C04         -6.5800    17.1450   266.3940 ca         1 KEZ      -0.055000
      4 C05         -6.1570    18.3650   265.8610 ca         1 KEZ      -0.137300
      5 C06         -5.7460    18.4770   264.4220 c3         1 KEZ      -0.035100
      6 C07         -6.8980    18.8810   263.4840 c6         1 KEZ       0.039700
      7 C08         -7.9940    17.8390   263.5120 c          1 KEZ       0.568000
      8 C10         -9.5540    19.4830   264.5630 c6         1 KEZ       0.041700
      9 C11         -9.8640    19.3520   266.0650 c3         1 KEZ      -0.039100
     10 C12        -10.9830    18.3840   266.3260 ca         1 KEZ      -0.132300
     11 C13        -12.3120    18.7580   266.1260 ca         1 KEZ      -0.066500
     12 C14        -13.3540    17.8700   266.3350 ca         1 KEZ      -0.175000
     13 C15        -13.0840    16.5680   266.7540 ca         1 KEZ       0.142100
     14 C17        -11.7650    16.1770   266.9580 ca         1 KEZ      -0.175000
     15 C18        -10.7330    17.0810   266.7420 ca         1 KEZ      -0.066500
     16 C19         -8.5290    20.5710   264.3300 c          1 KEZ       0.567000
     17 C23         -6.1450    19.4690   266.6990 ca         1 KEZ      -0.037000
     18 C24         -6.5470    19.3780   268.0340 ca         1 KEZ      -0.074000
     19 C25         -6.5330    20.5120   268.8930 cg         1 KEZ      -0.141000
     20 C26         -6.5390    21.4390   269.6630 c1         1 KEZ      -0.220000
     21 N09         -9.1870    18.2120   263.9820 ns         1 KEZ      -0.492900
     22 N20         -7.3700    20.2150   263.7660 ns         1 KEZ      -0.498900
     23 O01         -7.3670    17.9860   269.8180 oh         1 KEZ      -0.528100
     24 O16        -14.1310    15.7400   266.9470 oh         1 KEZ      -0.532100
     25 O21         -8.7950    21.7240   264.6340 o          1 KEZ      -0.558000
     26 O22         -7.7600    16.7090   263.1080 o          1 KEZ      -0.566000
     27 H1          -7.3000    16.0720   268.1050 ha         1 KEZ       0.133000
     28 H2          -6.5930    16.2640   265.7650 ha         1 KEZ       0.129000
     29 H3          -5.3370    17.5290   264.0670 hc         1 KEZ       0.065700
     30 H4          -4.9520    19.2190   264.3090 hc         1 KEZ       0.065700
     31 H5          -6.5050    18.8750   262.4640 h1         1 KEZ       0.081700
     32 H6         -10.4620    19.8290   264.0590 h1         1 KEZ       0.081700
     33 H7          -8.9600    19.0320   266.5860 hc         1 KEZ       0.071700
     34 H8         -10.1260    20.3410   266.4430 hc         1 KEZ       0.071700
     35 H9         -12.5430    19.7670   265.8050 ha         1 KEZ       0.117500
     36 H10        -14.3780    18.1840   266.1800 ha         1 KEZ       0.123000
     37 H11        -11.5360    15.1700   267.2860 ha         1 KEZ       0.123000
     38 H12         -9.7120    16.7610   266.9120 ha         1 KEZ       0.117500
     39 H13         -5.8110    20.4300   266.3280 ha         1 KEZ       0.122000
     40 H14         -6.5360    22.2690   270.3330 ha         1 KEZ       0.262000
     41 H15         -9.9050    17.5000   263.9860 hn         1 KEZ       0.330500
     42 H16         -6.7100    20.9630   263.5980 hn         1 KEZ       0.321500
     43 H17         -7.3250    18.8240   270.2990 ho         1 KEZ       0.480000
     44 H18        -13.8250    14.8740   267.2400 ho         1 KEZ       0.466000
@<TRIPOS>BOND
     1     1     2 ar  
     2     1    18 ar  
     3     1    23 1   
     4     2     3 ar  
     5     2    27 1   
     6     3     4 ar  
     7     3    28 1   
     8     4     5 1   
     9     4    17 ar  
    10     5     6 1   
    11     5    29 1   
    12     5    30 1   
    13     6     7 1   
    14     6    22 1   
    15     6    31 1   
    16     7    21 1   
    17     7    26 2   
    18     8     9 1   
    19     8    16 1   
    20     8    21 1   
    21     8    32 1   
    22     9    10 1   
    23     9    33 1   
    24     9    34 1   
    25    10    11 ar  
    26    10    15 ar  
    27    11    12 ar  
    28    11    35 1   
    29    12    13 ar  
    30    12    36 1   
    31    13    14 ar  
    32    13    24 1   
    33    14    15 ar  
    34    14    37 1   
    35    15    38 1   
    36    16    22 1   
    37    16    25 2   
    38    17    18 ar  
    39    17    39 1   
    40    18    19 1   
    41    19    20 3   
    42    20    40 1   
    43    21    41 1   
    44    22    42 1   
    45    23    43 1   
    46    24    44 1   
@<TRIPOS>SUBSTRUCTURE
     1 KEZ         1 TEMP              0 ****  ****    0 ROOT
