@<TRIPOS>MOLECULE
KEZ
   44    46     1     0     0
SMALL
No Charge or Current Charge


@<TRIPOS>ATOM
      1 C02         -6.9660    18.2250   268.6370 ca         1 KEZ       0.170100
      2 C03         -7.0460    17.0720   267.8420 ca         1 KEZ      -0.160000
      3 C04         -6.6700    17.1160   266.4890 ca         1 KEZ      -0.055000
      4 C05         -6.2040    18.3190   265.9230 ca         1 KEZ      -0.137300
      5 C06         -5.7930    18.3650   264.4540 c3         1 KEZ      -0.035100
      6 C07         -6.9040    18.8730   263.4870 c6         1 KEZ       0.039700
      7 C08         -8.0890    17.8610   263.4550 c          1 KEZ       0.568000
      8 C10         -9.5820    19.5860   264.5780 c6         1 KEZ       0.041700
      9 C11         -9.8740    19.3050   266.0790 c3         1 KEZ      -0.039100
     10 C12        -11.0060    18.3060   266.2940 ca         1 KEZ      -0.132300
     11 C13        -12.3460    18.7200   266.1720 ca         1 KEZ      -0.066500
     12 C14        -13.3900    17.7980   266.3640 ca         1 KEZ      -0.175000
     13 C15        -13.1010    16.4620   266.6770 ca         1 KEZ       0.142100
     14 C17        -11.7670    16.0420   266.7990 ca         1 KEZ      -0.175000
     15 C18        -10.7210    16.9620   266.6080 ca         1 KEZ      -0.066500
     16 C19         -8.4510    20.6500   264.4460 c          1 KEZ       0.567000
     17 C23         -6.1140    19.4740   266.7260 ca         1 KEZ      -0.037000
     18 C24         -6.4990    19.4360   268.0800 ca         1 KEZ      -0.074000
     19 C25         -6.4130    20.6360   268.8670 cg         1 KEZ      -0.141000
     20 C26         -6.3500    21.6490   269.5360 c1         1 KEZ      -0.220000
     21 N09         -9.3240    18.3200   263.8480 ns         1 KEZ      -0.492900
     22 N20         -7.2960    20.2700   263.8030 ns         1 KEZ      -0.498900
     23 O01         -7.3450    18.1590   269.9470 oh         1 KEZ      -0.528100
     24 O16        -14.1210    15.5770   266.8600 oh         1 KEZ      -0.532100
     25 O21         -8.5880    21.8010   264.8300 o          1 KEZ      -0.558000
     26 O22         -7.9650    16.7190   263.0410 o          1 KEZ      -0.566000
     27 H1          -7.4050    16.1420   268.2750 ha         1 KEZ       0.133000
     28 H2          -6.7410    16.2150   265.8830 ha         1 KEZ       0.129000
     29 H3          -5.4570    17.3710   264.1320 hc         1 KEZ       0.065700
     30 H4          -4.9090    19.0070   264.3480 hc         1 KEZ       0.065700
     31 H5          -6.4940    18.8700   262.4670 h1         1 KEZ       0.081700
     32 H6         -10.4750    20.0480   264.1340 h1         1 KEZ       0.081700
     33 H7          -8.9640    18.9430   266.5670 hc         1 KEZ       0.071700
     34 H8         -10.1200    20.2450   266.5880 hc         1 KEZ       0.071700
     35 H9         -12.5800    19.7540   265.9280 ha         1 KEZ       0.117500
     36 H10        -14.4240    18.1210   266.2680 ha         1 KEZ       0.123000
     37 H11        -11.5330    15.0080   267.0400 ha         1 KEZ       0.123000
     38 H12         -9.6900    16.6280   266.7000 ha         1 KEZ       0.117500
     39 H13         -5.7510    20.4050   266.2940 ha         1 KEZ       0.122000
     40 H14         -6.2920    22.5470   270.1180 ha         1 KEZ       0.262000
     41 H15        -10.0790    17.6470   263.7830 hn         1 KEZ       0.330500
     42 H16         -6.6080    21.0030   263.6740 hn         1 KEZ       0.321500
     43 H17         -7.2140    19.0530   270.3290 ho         1 KEZ       0.480000
     44 H18        -13.7350    14.6990   267.0700 ho         1 KEZ       0.466000
@<TRIPOS>BOND
     1     1     2 ar  
     2     1    18 ar  
     3     1    23 1   
     4     2     3 ar  
     5     2    27 1   
     6     3     4 ar  
     7     3    28 1   
     8     4     5 1   
     9     4    17 ar  
    10     5     6 1   
    11     5    29 1   
    12     5    30 1   
    13     6     7 1   
    14     6    22 1   
    15     6    31 1   
    16     7    21 1   
    17     7    26 2   
    18     8     9 1   
    19     8    16 1   
    20     8    21 1   
    21     8    32 1   
    22     9    10 1   
    23     9    33 1   
    24     9    34 1   
    25    10    11 ar  
    26    10    15 ar  
    27    11    12 ar  
    28    11    35 1   
    29    12    13 ar  
    30    12    36 1   
    31    13    14 ar  
    32    13    24 1   
    33    14    15 ar  
    34    14    37 1   
    35    15    38 1   
    36    16    22 1   
    37    16    25 2   
    38    17    18 ar  
    39    17    39 1   
    40    18    19 1   
    41    19    20 3   
    42    20    40 1   
    43    21    41 1   
    44    22    42 1   
    45    23    43 1   
    46    24    44 1   
@<TRIPOS>SUBSTRUCTURE
     1 KEZ         1 TEMP              0 ****  ****    0 ROOT
