@<TRIPOS>MOLECULE
KF1
   45    49     1     0     0
SMALL
abcg2


@<TRIPOS>ATOM
      1 C4          -4.9650    -2.4830    -0.0070 ca         1 KF1      -0.111000
      2 C14          2.0790     1.0500    -0.1400 c          1 KF1       0.657300
      3 C5          -5.8840    -2.6030    -1.0150 ca         1 KF1      -0.093000
      4 C6          -5.9580    -1.6330    -2.0370 ca         1 KF1      -0.116000
      5 C11         -1.4430     1.9890     0.0390 cc         1 KF1      -0.136000
      6 C7          -5.1090    -0.5590    -2.0260 ca         1 KF1      -0.084000
      7 C8          -4.1520    -0.4110    -0.9960 ca         1 KF1      -0.064000
      8 C9          -3.2570     0.6790    -0.9600 ca         1 KF1      -0.062000
      9 C10         -2.3240     0.8210     0.0360 ca         1 KF1      -0.030000
     10 C12         -0.0710     2.1440     0.1670 cd         1 KF1      -0.021400
     11 C13          0.1590     3.5180    -0.0230 cd         1 KF1       0.246900
     12 N1          -1.9150     3.2320    -0.2000 na         1 KF1       0.001800
     13 N2           0.8470     1.1300     0.4230 ns         1 KF1      -0.385100
     14 C3          -4.0750    -1.3850     0.0280 ca         1 KF1       0.005000
     15 N3           3.5510    -2.0150     1.3140 nc         1 KF1      -0.579100
     16 O1           2.5000     1.8850    -0.9250 o          1 KF1      -0.571100
     17 C15          2.8710    -0.1130     0.2680 cd         1 KF1      -0.354800
     18 C17          4.1330    -0.4550    -0.2240 cc         1 KF1       0.427500
     19 N5           4.9440     0.0940    -1.1330 nc         1 KF1      -0.605000
     20 C18          6.0840    -0.5060    -1.3570 cd         1 KF1       0.378900
     21 C19          6.4950    -1.6870    -0.6980 cd         1 KF1      -0.220000
     22 C20          5.6580    -2.2350     0.2210 cc         1 KF1      -0.037000
     23 N4           4.4830    -1.6100     0.4470 na         1 KF1       0.114900
     24 C16          2.5900    -1.1210     1.2050 cd         1 KF1       0.414500
     25 N           -0.9740     4.1590    -0.2430 nc         1 KF1      -0.510800
     26 C1          -2.2590    -0.1670     1.0650 ca         1 KF1       0.153100
     27 O           -1.3270     0.0530     2.0120 os         1 KF1      -0.350100
     28 C           -1.2460    -0.8420     3.1100 c3         1 KF1       0.141900
     29 C2          -3.1120    -1.2390     1.0540 ca         1 KF1      -0.198000
     30 H1          -4.9100    -3.2310     0.7750 ha         1 KF1       0.113000
     31 H2          -6.5590    -3.4480    -1.0320 ha         1 KF1       0.114000
     32 H3          -6.6880    -1.7420    -2.8270 ha         1 KF1       0.116000
     33 H4          -5.1620     0.1890    -2.8080 ha         1 KF1       0.115000
     34 H5          -3.3040     1.4120    -1.7570 ha         1 KF1       0.122000
     35 H6           1.0970     4.0490    -0.0130 h4         1 KF1       0.056100
     36 H7          -2.8830     3.4950    -0.2960 hn         1 KF1       0.371000
     37 H8           0.5290     0.4010     1.0410 hn         1 KF1       0.329500
     38 H9           6.7360    -0.0550    -2.0950 h4         1 KF1       0.037100
     39 H10          7.4470    -2.1440    -0.9170 ha         1 KF1       0.145000
     40 H11          5.8540    -3.1340     0.7870 h4         1 KF1       0.165000
     41 H12          1.7130    -1.2350     1.8250 h4         1 KF1       0.045800
     42 H13         -0.4570    -0.4650     3.7540 h1         1 KF1       0.045367
     43 H14         -2.1810    -0.8680     3.6730 h1         1 KF1       0.045367
     44 H15         -0.9950    -1.8550     2.7880 h1         1 KF1       0.045367
     45 H16         -3.0750    -1.9910     1.8310 ha         1 KF1       0.121000
@<TRIPOS>BOND
     1     1     3 ar  
     2     1    14 ar  
     3     1    30 1   
     4     2    13 1   
     5     2    16 2   
     6     2    17 1   
     7     3     4 ar  
     8     3    31 1   
     9     4     6 ar  
    10     4    32 1   
    11     5     9 1   
    12     5    10 2   
    13     5    12 1   
    14     6     7 ar  
    15     6    33 1   
    16     7     8 ar  
    17     7    14 ar  
    18     8     9 ar  
    19     8    34 1   
    20     9    26 ar  
    21    10    11 1   
    22    10    13 1   
    23    11    25 2   
    24    11    35 1   
    25    12    25 1   
    26    12    36 1   
    27    13    37 1   
    28    14    29 ar  
    29    15    23 1   
    30    15    24 2   
    31    17    18 2   
    32    17    24 1   
    33    18    19 1   
    34    18    23 1   
    35    19    20 2   
    36    20    21 1   
    37    20    38 1   
    38    21    22 2   
    39    21    39 1   
    40    22    23 1   
    41    22    40 1   
    42    24    41 1   
    43    26    27 1   
    44    26    29 ar  
    45    27    28 1   
    46    28    42 1   
    47    28    43 1   
    48    28    44 1   
    49    29    45 1   
@<TRIPOS>SUBSTRUCTURE
     1 KF1         1 TEMP              0 ****  ****    0 ROOT
