@<TRIPOS>MOLECULE
KF1
   45    49     1     0     0
SMALL
No Charge or Current Charge


@<TRIPOS>ATOM
      1 C4          -4.6560    -2.5760     0.1560 ca         1 KF1      -0.111000
      2 C14          2.0980     1.1790    -0.2130 c          1 KF1       0.657300
      3 C5          -5.7060    -2.7420    -0.7630 ca         1 KF1      -0.093000
      4 C6          -5.9740    -1.7420    -1.7130 ca         1 KF1      -0.116000
      5 C11         -1.5100     2.1810    -0.0270 cc         1 KF1      -0.136000
      6 C7          -5.1930    -0.5730    -1.7440 ca         1 KF1      -0.084000
      7 C8          -4.1400    -0.4040    -0.8240 ca         1 KF1      -0.064000
      8 C9          -3.3550     0.7620    -0.8520 ca         1 KF1      -0.062000
      9 C10         -2.2920     0.9400     0.0560 ca         1 KF1      -0.030000
     10 C12         -0.1520     2.2660    -0.1370 cd         1 KF1      -0.021400
     11 C13          0.1600     3.6360    -0.3430 cd         1 KF1       0.246900
     12 N1          -1.9590     3.4830    -0.2320 na         1 KF1       0.001800
     13 N2           0.7250     1.1910    -0.0780 ns         1 KF1      -0.385100
     14 C3          -3.8710    -1.4070     0.1280 ca         1 KF1       0.005000
     15 N3           2.7890    -2.4460     0.3280 nc         1 KF1      -0.579100
     16 O1           2.7490     2.1850    -0.4480 o          1 KF1      -0.571100
     17 C15          2.6740    -0.1640    -0.0440 cd         1 KF1      -0.354800
     18 C17          3.9980    -0.4850    -0.1130 cc         1 KF1       0.427500
     19 N5           5.0550     0.3490    -0.3490 nc         1 KF1      -0.605000
     20 C18          6.2080    -0.3150    -0.3440 cd         1 KF1       0.378900
     21 C19          6.3110    -1.7410    -0.1150 cd         1 KF1      -0.220000
     22 C20          5.2020    -2.5530     0.1240 cc         1 KF1      -0.037000
     23 N4           4.0010    -1.8480     0.1160 na         1 KF1       0.114900
     24 C16          1.9930    -1.3870     0.2240 cd         1 KF1       0.414500
     25 N           -0.9250     4.3970    -0.4030 nc         1 KF1      -0.510800
     26 C1          -2.0320    -0.0660     1.0240 ca         1 KF1       0.153100
     27 O           -1.0160     0.1330     1.9420 os         1 KF1      -0.350100
     28 C           -0.7380    -0.7920     3.0090 c3         1 KF1       0.141900
     29 C2          -2.8230    -1.2370     1.0480 ca         1 KF1      -0.198000
     30 H1          -4.4550    -3.3540     0.8880 ha         1 KF1       0.113000
     31 H2          -6.3120    -3.6460    -0.7400 ha         1 KF1       0.114000
     32 H3          -6.7870    -1.8710    -2.4240 ha         1 KF1       0.116000
     33 H4          -5.4070     0.1960    -2.4820 ha         1 KF1       0.115000
     34 H5          -3.5620     1.5290    -1.5940 ha         1 KF1       0.122000
     35 H6           1.1290     4.1000    -0.4700 h4         1 KF1       0.056100
     36 H7          -2.9340     3.7810    -0.2500 hn         1 KF1       0.371000
     37 H8           0.3210     0.2880     0.1260 hn         1 KF1       0.329500
     38 H9           7.0780     0.3020    -0.5280 h4         1 KF1       0.037100
     39 H10          7.2970    -2.1910    -0.1300 ha         1 KF1       0.145000
     40 H11          5.1880    -3.6200     0.3040 h4         1 KF1       0.165000
     41 H12          0.9280    -1.5380     0.3450 h4         1 KF1       0.045800
     42 H13          0.0960    -0.4260     3.6210 h1         1 KF1       0.045367
     43 H14         -1.6130    -0.9090     3.6620 h1         1 KF1       0.045367
     44 H15         -0.4590    -1.7770     2.6130 h1         1 KF1       0.045367
     45 H16         -2.6400    -2.0210     1.7770 ha         1 KF1       0.121000
@<TRIPOS>BOND
     1     1     3 ar  
     2     1    14 ar  
     3     1    30 1   
     4     2    13 1   
     5     2    16 2   
     6     2    17 1   
     7     3     4 ar  
     8     3    31 1   
     9     4     6 ar  
    10     4    32 1   
    11     5     9 1   
    12     5    10 2   
    13     5    12 1   
    14     6     7 ar  
    15     6    33 1   
    16     7     8 ar  
    17     7    14 ar  
    18     8     9 ar  
    19     8    34 1   
    20     9    26 ar  
    21    10    11 1   
    22    10    13 1   
    23    11    25 2   
    24    11    35 1   
    25    12    25 1   
    26    12    36 1   
    27    13    37 1   
    28    14    29 ar  
    29    15    23 1   
    30    15    24 2   
    31    17    18 2   
    32    17    24 1   
    33    18    19 1   
    34    18    23 1   
    35    19    20 2   
    36    20    21 1   
    37    20    38 1   
    38    21    22 2   
    39    21    39 1   
    40    22    23 1   
    41    22    40 1   
    42    24    41 1   
    43    26    27 1   
    44    26    29 ar  
    45    27    28 1   
    46    28    42 1   
    47    28    43 1   
    48    28    44 1   
    49    29    45 1   
@<TRIPOS>SUBSTRUCTURE
     1 KF1         1 TEMP              0 ****  ****    0 ROOT
