@<TRIPOS>MOLECULE
KF2
   46    46     1     0     0
SMALL
No Charge or Current Charge


@<TRIPOS>ATOM
      1 C2          -4.3630     0.2110    -0.2690 ca         1 KF2      -0.050300
      2 C1          -2.8760     0.0440    -0.5590 c3         1 KF2      -0.042100
      3 C3          -5.3240    -0.3910    -1.1050 ca         1 KF2      -0.110500
      4 CA           3.3450     0.2180     0.0620 c3         1 KF2      -0.148700
      5 C            3.2750     1.4670    -0.8500 c          1 KF2       0.625900
      6 O            3.2470     2.6170    -0.4210 o          1 KF2      -0.553100
      7 C14          2.1150    -0.7330    -0.1270 c3         1 KF2      -0.422400
      8 C16          4.6740    -0.5630    -0.1500 c3         1 KF2      -0.064400
      9 C18          5.9860     0.2540     0.0350 c3         1 KF2      -0.062700
     10 C19          6.1320     0.8490     1.4570 c3         1 KF2      -0.085100
     11 C21          7.2200    -0.6040    -0.3240 c3         1 KF2      -0.085100
     12 C4          -6.6950    -0.2380    -0.8350 ca         1 KF2      -0.119000
     13 C5          -7.1130     0.5180     0.2730 ca         1 KF2      -0.132000
     14 C6          -6.1600     1.1190     1.1120 ca         1 KF2      -0.119000
     15 C7          -4.7880     0.9660     0.8410 ca         1 KF2      -0.110500
     16 C8          -2.2470    -1.0990     0.2750 c3         1 KF2      -0.069400
     17 C9          -0.7770    -1.4650    -0.0920 c3         1 KF2      -0.190500
     18 N10         -0.4770    -2.8200     0.5360 n8         1 KF2      -0.979200
     19 P11          0.4370     0.0260     0.0670 p5         1 KF2       1.404000
     20 H1          -2.7210    -0.1590    -1.6260 hc         1 KF2       0.070700
     21 H2          -2.3610     0.9880    -0.3480 hc         1 KF2       0.070700
     22 H3          -5.0090    -0.9800    -1.9640 ha         1 KF2       0.116500
     23 H4           3.3220     0.5810     1.0970 hc         1 KF2       0.077700
     24 H6           2.1290    -1.1770    -1.1280 hc         1 KF2       0.049700
     25 H7           2.1660    -1.5540     0.5970 hc         1 KF2       0.049700
     26 H8           4.6940    -1.4190     0.5360 hc         1 KF2       0.032200
     27 H9           4.6680    -0.9840    -1.1640 hc         1 KF2       0.032200
     28 H10          5.9720     1.0930    -0.6720 hc         1 KF2       0.048700
     29 H11          6.0870     0.0590     2.2170 hc         1 KF2       0.027367
     30 H12          7.0910     1.3690     1.5610 hc         1 KF2       0.027367
     31 H13          5.3400     1.5770     1.6670 hc         1 KF2       0.027367
     32 H14          7.1470    -0.9790    -1.3520 hc         1 KF2       0.027367
     33 H15          8.1410    -0.0130    -0.2470 hc         1 KF2       0.027367
     34 H16          7.3080    -1.4650     0.3500 hc         1 KF2       0.027367
     35 H17         -7.4330    -0.7050    -1.4840 ha         1 KF2       0.098500
     36 H18         -8.1740     0.6370     0.4830 ha         1 KF2       0.096000
     37 H19         -6.4820     1.7040     1.9710 ha         1 KF2       0.098500
     38 H20         -4.0560     1.4330     1.4960 ha         1 KF2       0.116500
     39 H21         -2.3010    -0.8330     1.3380 hc         1 KF2       0.026700
     40 H22         -2.8780    -1.9880     0.1450 hc         1 KF2       0.026700
     41 H23         -0.7540    -1.6300    -1.1770 h1         1 KF2       0.053700
     42 H24         -0.4270    -2.7330     1.5600 hn         1 KF2       0.378500
     43 H25         -1.2660    -3.4620     0.3840 hn         1 KF2       0.378500
     44 O12          0.3380     0.6570     1.4220 o          1 KF2      -0.821500
     45 O13          0.2370     1.0040    -1.0490 o          1 KF2      -0.821500
     46 H5           3.2570     1.2630    -1.9440 h4         1 KF2      -0.026800
@<TRIPOS>BOND
     1     1     2 1   
     2     1     3 ar  
     3     1    15 ar  
     4     2    16 1   
     5     2    20 1   
     6     2    21 1   
     7     3    12 ar  
     8     3    22 1   
     9     4     5 1   
    10     4     7 1   
    11     4     8 1   
    12     4    23 1   
    13     5     6 2   
    14     5    46 1   
    15     7    19 1   
    16     7    24 1   
    17     7    25 1   
    18     8     9 1   
    19     8    26 1   
    20     8    27 1   
    21     9    10 1   
    22     9    11 1   
    23     9    28 1   
    24    10    29 1   
    25    10    30 1   
    26    10    31 1   
    27    11    32 1   
    28    11    33 1   
    29    11    34 1   
    30    12    13 ar  
    31    12    35 1   
    32    13    14 ar  
    33    13    36 1   
    34    14    15 ar  
    35    14    37 1   
    36    15    38 1   
    37    16    17 1   
    38    16    39 1   
    39    16    40 1   
    40    17    18 1   
    41    17    19 1   
    42    17    41 1   
    43    18    42 1   
    44    18    43 1   
    45    19    44 1   
    46    19    45 1   
@<TRIPOS>SUBSTRUCTURE
     1 KF2         1 TEMP              0 ****  ****    0 ROOT
