@<TRIPOS>MOLECULE
KF2
   46    46     1     0     0
SMALL
abcg2


@<TRIPOS>ATOM
      1 C2          -4.2030     0.3100    -0.3050 ca         1 KF2      -0.050300
      2 C1          -2.7290     0.1300    -0.5350 c3         1 KF2      -0.042100
      3 C3          -5.1400    -0.2540    -1.1690 ca         1 KF2      -0.110500
      4 CA           3.2120     0.1090     0.1100 c3         1 KF2      -0.148700
      5 C            2.9980     1.2130    -0.8890 c          1 KF2       0.625900
      6 O            3.2440     2.3810    -0.6990 o          1 KF2      -0.553100
      7 C14          2.1000    -0.9380     0.0160 c3         1 KF2      -0.422400
      8 C16          4.5750    -0.5490    -0.1810 c3         1 KF2      -0.064400
      9 C18          5.8170     0.3350    -0.0570 c3         1 KF2      -0.062700
     10 C19          5.9220     0.9900     1.3170 c3         1 KF2      -0.085100
     11 C21          7.0610    -0.5000    -0.3470 c3         1 KF2      -0.085100
     12 C4          -6.5030    -0.1260    -0.9320 ca         1 KF2      -0.119000
     13 C5          -6.9540     0.5700     0.1820 ca         1 KF2      -0.132000
     14 C6          -6.0310     1.1370     1.0520 ca         1 KF2      -0.119000
     15 C7          -4.6700     1.0070     0.8080 ca         1 KF2      -0.110500
     16 C8          -2.1900    -1.0750     0.2400 c3         1 KF2      -0.069400
     17 C9          -0.7450    -1.4760    -0.0760 c3         1 KF2      -0.190500
     18 N10         -0.3590    -2.7360     0.5510 n8         1 KF2      -0.979200
     19 P11          0.4790    -0.1930     0.4520 p5         1 KF2       1.404000
     20 H1          -2.5360    -0.0120    -1.6020 hc         1 KF2       0.070700
     21 H2          -2.1910     1.0310    -0.2400 hc         1 KF2       0.070700
     22 H3          -4.7990    -0.7950    -2.0450 ha         1 KF2       0.116500
     23 H4           3.2290     0.5440     1.1130 hc         1 KF2       0.077700
     24 H6           2.0550    -1.3370    -1.0030 hc         1 KF2       0.049700
     25 H7           2.3320    -1.7810     0.6680 hc         1 KF2       0.049700
     26 H8           4.6750    -1.3910     0.5120 hc         1 KF2       0.032200
     27 H9           4.5440    -0.9890    -1.1850 hc         1 KF2       0.032200
     28 H10          5.7680     1.1300    -0.8090 hc         1 KF2       0.048700
     29 H11          5.8770     0.2400     2.1120 hc         1 KF2       0.027367
     30 H12          6.8670     1.5270     1.4210 hc         1 KF2       0.027367
     31 H13          5.1200     1.7080     1.4900 hc         1 KF2       0.027367
     32 H14          7.0070    -0.9720    -1.3310 hc         1 KF2       0.027367
     33 H15          7.9640     0.1120    -0.3230 hc         1 KF2       0.027367
     34 H16          7.1780    -1.2950     0.3940 hc         1 KF2       0.027367
     35 H17         -7.2120    -0.5670    -1.6210 ha         1 KF2       0.098500
     36 H18         -8.0150     0.6710     0.3700 ha         1 KF2       0.096000
     37 H19         -6.3720     1.6820     1.9230 ha         1 KF2       0.098500
     38 H20         -3.9600     1.4580     1.4920 ha         1 KF2       0.116500
     39 H21         -2.2820    -0.8880     1.3150 hc         1 KF2       0.026700
     40 H22         -2.8300    -1.9400     0.0260 hc         1 KF2       0.026700
     41 H23         -0.6440    -1.5970    -1.1620 h1         1 KF2       0.053700
     42 H24         -0.3880    -2.6250     1.5580 hn         1 KF2       0.378500
     43 H25         -1.0470    -3.4480     0.3330 hn         1 KF2       0.378500
     44 O12          0.3720    -0.0470     1.9580 o          1 KF2      -0.821500
     45 O13          0.3500     1.0520    -0.4150 o          1 KF2      -0.821500
     46 H5           2.6990     0.8540    -1.8920 h4         1 KF2      -0.026800
@<TRIPOS>BOND
     1     1     2 1   
     2     1     3 ar  
     3     1    15 ar  
     4     2    16 1   
     5     2    20 1   
     6     2    21 1   
     7     3    12 ar  
     8     3    22 1   
     9     4     5 1   
    10     4     7 1   
    11     4     8 1   
    12     4    23 1   
    13     5     6 2   
    14     5    46 1   
    15     7    19 1   
    16     7    24 1   
    17     7    25 1   
    18     8     9 1   
    19     8    26 1   
    20     8    27 1   
    21     9    10 1   
    22     9    11 1   
    23     9    28 1   
    24    10    29 1   
    25    10    30 1   
    26    10    31 1   
    27    11    32 1   
    28    11    33 1   
    29    11    34 1   
    30    12    13 ar  
    31    12    35 1   
    32    13    14 ar  
    33    13    36 1   
    34    14    15 ar  
    35    14    37 1   
    36    15    38 1   
    37    16    17 1   
    38    16    39 1   
    39    16    40 1   
    40    17    18 1   
    41    17    19 1   
    42    17    41 1   
    43    18    42 1   
    44    18    43 1   
    45    19    44 1   
    46    19    45 1   
@<TRIPOS>SUBSTRUCTURE
     1 KF2         1 TEMP              0 ****  ****    0 ROOT
