@<TRIPOS>MOLECULE
KF3
   50    52     1     0     0
SMALL
No Charge or Current Charge


@<TRIPOS>ATOM
      1 C1          90.6530    -6.2310    16.3070 ca         1 KF3       0.050900
      2 N2          91.4450    -5.1450    16.2230 nb         1 KF3      -0.128000
      3 C3          92.6100    -5.2800    15.5510 ca         1 KF3       0.109300
      4 N4          93.0430    -6.4270    14.9790 nb         1 KF3      -0.168000
      5 C5          92.2560    -7.5320    15.0600 ca         1 KF3      -0.022500
      6 C6          90.9990    -7.4700    15.7200 ca         1 KF3       0.282000
      7 C7          93.5170    -4.0250    15.4560 c3         1 KF3      -0.073300
      8 N8          90.1580    -8.5960    15.8150 nu         1 KF3      -0.964000
      9 C9          92.7890    -8.8150    14.4370 c          1 KF3       0.528600
     10 O10         92.2180    -9.8960    14.5650 o          1 KF3      -0.614100
     11 C11         92.7300    -2.8630    14.7870 c3         1 KF3      -0.081767
     12 C12         93.9530    -3.5970    16.8840 c3         1 KF3      -0.081767
     13 C13         94.8030    -4.2820    14.6130 c3         1 KF3      -0.081767
     14 C14         88.7960    -8.7910    16.1270 ca         1 KF3       0.193000
     15 C15         88.3330   -10.0580    16.5460 ca         1 KF3       0.072400
     16 N16         87.0350   -10.2890    16.8370 nb         1 KF3      -0.148500
     17 C17         86.1920    -9.2450    16.6960 ca         1 KF3       0.096900
     18 N18         86.5150    -8.0010    16.2850 nb         1 KF3      -0.148500
     19 C19         87.8160    -7.7780    15.9990 ca         1 KF3       0.072400
     20 N20         93.9810    -8.6650    13.7330 ns         1 KF3      -0.121000
     21 C21         94.7960    -9.5790    13.0080 ca         1 KF3      -0.006000
     22 C22         96.0170    -9.0940    12.4990 ca         1 KF3      -0.161000
     23 C23         96.8820    -9.9380    11.7660 ca         1 KF3       0.121100
     24 C24         96.5130   -11.2730    11.5450 ca         1 KF3      -0.123000
     25 C25         95.2980   -11.7670    12.0430 ca         1 KF3      -0.077000
     26 C26         94.4410   -10.9260    12.7710 ca         1 KF3      -0.126000
     27 O27         98.0930    -9.5230    11.2430 os         1 KF3      -0.404100
     28 C28         98.6190    -8.1870    11.3800 c3         1 KF3       0.515000
     29 F29         97.8080    -7.2600    10.8180 f          1 KF3      -0.108667
     30 F30         98.8100    -7.8440    12.6750 f          1 KF3      -0.108667
     31 F31         99.8170    -8.0820    10.7650 f          1 KF3      -0.108667
     32 H32         89.7350    -6.1020    16.8750 h4         1 KF3       0.037100
     33 H33         90.6530    -9.4560    15.5270 hn         1 KF3       0.543000
     34 H34         93.3620    -1.9720    14.6780 hc         1 KF3       0.041478
     35 H35         92.3820    -3.1550    13.7890 hc         1 KF3       0.041478
     36 H36         91.8540    -2.5770    15.3810 hc         1 KF3       0.041478
     37 H37         94.6170    -2.7250    16.8480 hc         1 KF3       0.041478
     38 H38         93.0880    -3.3300    17.5040 hc         1 KF3       0.041478
     39 H39         94.4900    -4.4110    17.3860 hc         1 KF3       0.041478
     40 H40         95.4210    -3.3780    14.5560 hc         1 KF3       0.041478
     41 H42         95.4190    -5.0740    15.0580 hc         1 KF3       0.041478
     42 H41         94.5520    -4.5770    13.5870 hc         1 KF3       0.041478
     43 H43         89.0140   -10.9010    16.6580 h4         1 KF3       0.033100
     44 H44         85.1440    -9.4270    16.9290 h5         1 KF3       0.057100
     45 H45         88.0610    -6.7810    15.6380 h4         1 KF3       0.033100
     46 H46         94.3350    -7.7180    13.7350 hn         1 KF3       0.192000
     47 H47         96.2770    -8.0570    12.6850 ha         1 KF3       0.136000
     48 H48         97.1740   -11.9280    10.9810 ha         1 KF3       0.137000
     49 H49         95.0190   -12.8030    11.8640 ha         1 KF3       0.125000
     50 H50         93.5060   -11.3390    13.1360 ha         1 KF3       0.151000
@<TRIPOS>BOND
     1     1     2 ar  
     2     1     6 ar  
     3     1    32 1   
     4     2     3 ar  
     5     3     4 ar  
     6     3     7 1   
     7     4     5 ar  
     8     5     6 ar  
     9     5     9 1   
    10     6     8 1   
    11     7    11 1   
    12     7    12 1   
    13     7    13 1   
    14     8    14 1   
    15     8    33 1   
    16     9    10 2   
    17     9    20 1   
    18    11    34 1   
    19    11    35 1   
    20    11    36 1   
    21    12    37 1   
    22    12    38 1   
    23    12    39 1   
    24    13    40 1   
    25    13    41 1   
    26    13    42 1   
    27    14    15 ar  
    28    14    19 ar  
    29    15    16 ar  
    30    15    43 1   
    31    16    17 ar  
    32    17    18 ar  
    33    17    44 1   
    34    18    19 ar  
    35    19    45 1   
    36    20    21 1   
    37    20    46 1   
    38    21    22 ar  
    39    21    26 ar  
    40    22    23 ar  
    41    22    47 1   
    42    23    24 ar  
    43    23    27 1   
    44    24    25 ar  
    45    24    48 1   
    46    25    26 ar  
    47    25    49 1   
    48    26    50 1   
    49    27    28 1   
    50    28    29 1   
    51    28    30 1   
    52    28    31 1   
@<TRIPOS>SUBSTRUCTURE
     1 KF3         1 TEMP              0 ****  ****    0 ROOT
