@<TRIPOS>MOLECULE
KF3
   50    52     1     0     0
SMALL
bcc


@<TRIPOS>ATOM
      1 C1          90.6590    -6.3720    16.2910 ca         1 KF3       0.379200
      2 N2          91.3970    -5.2950    16.2000 nb         1 KF3      -0.654000
      3 C3          92.5130    -5.3480    15.4640 ca         1 KF3       0.635300
      4 N4          92.9210    -6.4520    14.8820 nb         1 KF3      -0.694000
      5 C5          92.1980    -7.5650    14.9690 ca         1 KF3       0.305800
      6 C6          90.9770    -7.5880    15.6520 ca         1 KF3       0.013000
      7 C7          93.3450    -4.0870    15.3570 c3         1 KF3      -0.073300
      8 N8          90.1860    -8.6980    15.7520 nu         1 KF3      -0.632000
      9 C9          92.7870    -8.7800    14.3220 c          1 KF3       0.595600
     10 O10         92.2560    -9.8790    14.4100 o          1 KF3      -0.614100
     11 C11         92.4470    -2.9190    14.9370 c3         1 KF3      -0.081767
     12 C12         93.9480    -3.7950    16.7380 c3         1 KF3      -0.081767
     13 C13         94.4690    -4.2510    14.3370 c3         1 KF3      -0.081767
     14 C14         88.8500    -8.7380    16.1160 ca         1 KF3      -0.076000
     15 C15         88.3480    -9.8350    16.8160 ca         1 KF3       0.400700
     16 N16         87.0720    -9.9390    17.1480 nb         1 KF3      -0.674500
     17 C17         86.2760    -8.9400    16.7970 ca         1 KF3       0.622900
     18 N18         86.6400    -7.8620    16.1210 nb         1 KF3      -0.674500
     19 C19         87.9130    -7.7650    15.7710 ca         1 KF3       0.400700
     20 N20         93.9360    -8.5200    13.6660 ns         1 KF3      -0.447100
     21 C21         94.7880    -9.3870    12.9860 ca         1 KF3       0.086600
     22 C22         95.8740    -8.7990    12.3310 ca         1 KF3      -0.179000
     23 C23         96.7710    -9.5960    11.6490 ca         1 KF3       0.121100
     24 C24         96.6290   -10.9710    11.5850 ca         1 KF3      -0.141000
     25 C25         95.5450   -11.5410    12.2330 ca         1 KF3      -0.095000
     26 C26         94.6270   -10.7730    12.9340 ca         1 KF3      -0.144000
     27 O27         97.8110    -8.9960    10.9480 os         1 KF3      -0.380900
     28 C28         98.9400    -8.7080    11.6060 c3         1 KF3       0.855700
     29 F29         98.7620    -7.7950    12.5630 f          1 KF3      -0.229967
     30 F30         99.4890    -9.7730    12.1920 f          1 KF3      -0.229967
     31 F31         99.8030    -8.2240    10.7250 f          1 KF3      -0.229967
     32 H32         89.7740    -6.2990    16.9150 h4         1 KF3       0.037100
     33 H33         90.6240    -9.5710    15.4880 hn         1 KF3       0.487800
     34 H34         93.0380    -2.0040    14.8680 hc         1 KF3       0.041478
     35 H35         91.9950    -3.0970    13.9590 hc         1 KF3       0.041478
     36 H36         91.6470    -2.7480    15.6560 hc         1 KF3       0.041478
     37 H37         94.5500    -2.8850    16.6990 hc         1 KF3       0.041478
     38 H38         93.1710    -3.6490    17.4900 hc         1 KF3       0.041478
     39 H39         94.5940    -4.6100    17.0690 hc         1 KF3       0.041478
     40 H40         95.0290    -3.3180    14.2640 hc         1 KF3       0.041478
     41 H42         95.1690    -5.0380    14.6180 hc         1 KF3       0.041478
     42 H41         94.0820    -4.4860    13.3450 hc         1 KF3       0.041478
     43 H43         89.0080   -10.6480    17.1010 h4         1 KF3       0.033100
     44 H44         85.2330    -9.0160    17.0820 h5         1 KF3       0.057100
     45 H45         88.1950    -6.8930    15.1910 h4         1 KF3       0.033100
     46 H46         94.2150    -7.5450    13.7070 hn         1 KF3       0.358500
     47 H47         95.9970    -7.7230    12.3420 ha         1 KF3       0.154000
     48 H48         97.3340   -11.5770    11.0320 ha         1 KF3       0.155000
     49 H49         95.4080   -12.6140    12.1960 ha         1 KF3       0.143000
     50 H50         93.7990   -11.2560    13.4260 ha         1 KF3       0.169000
@<TRIPOS>BOND
     1     1     2 ar  
     2     1     6 ar  
     3     1    32 1   
     4     2     3 ar  
     5     3     4 ar  
     6     3     7 1   
     7     4     5 ar  
     8     5     6 ar  
     9     5     9 1   
    10     6     8 1   
    11     7    11 1   
    12     7    12 1   
    13     7    13 1   
    14     8    14 1   
    15     8    33 1   
    16     9    10 2   
    17     9    20 1   
    18    11    34 1   
    19    11    35 1   
    20    11    36 1   
    21    12    37 1   
    22    12    38 1   
    23    12    39 1   
    24    13    40 1   
    25    13    41 1   
    26    13    42 1   
    27    14    15 ar  
    28    14    19 ar  
    29    15    16 ar  
    30    15    43 1   
    31    16    17 ar  
    32    17    18 ar  
    33    17    44 1   
    34    18    19 ar  
    35    19    45 1   
    36    20    21 1   
    37    20    46 1   
    38    21    22 ar  
    39    21    26 ar  
    40    22    23 ar  
    41    22    47 1   
    42    23    24 ar  
    43    23    27 1   
    44    24    25 ar  
    45    24    48 1   
    46    25    26 ar  
    47    25    49 1   
    48    26    50 1   
    49    27    28 1   
    50    28    29 1   
    51    28    30 1   
    52    28    31 1   
@<TRIPOS>SUBSTRUCTURE
     1 KF3         1 TEMP              0 ****  ****    0 ROOT
