@<TRIPOS>MOLECULE
KF4
   42    46     1     0     0
SMALL
No Charge or Current Charge


@<TRIPOS>ATOM
      1 C4          -4.1800    -0.6520    -0.9870 ca         1 KF4      -0.274900
      2 C14          6.0300    -0.0880    -0.1700 cc         1 KF4       0.377900
      3 C5          -3.5020     0.5710    -0.9950 ca         1 KF4       0.010000
      4 C6          -2.4950     0.7800    -0.0220 ca         1 KF4      -0.097000
      5 C11          2.5290    -0.0600    -0.0140 cc         1 KF4      -0.357800
      6 C7          -1.7800     2.0630    -0.0290 cc         1 KF4      -0.105000
      7 C8          -0.4270     2.2210    -0.0900 cd         1 KF4      -0.047400
      8 C9          -0.1810     3.6140    -0.2240 cd         1 KF4       0.261900
      9 C10          1.8810     1.2520    -0.1300 c          1 KF4       0.657300
     10 C12          1.8870    -1.3160     0.1580 cc         1 KF4       0.409500
     11 C13          3.8540    -0.3520    -0.0420 cd         1 KF4       0.423500
     12 N1          -2.2920     3.3470    -0.1900 na         1 KF4       0.001800
     13 N2           0.5030     1.1880    -0.0540 ns         1 KF4      -0.381100
     14 C3          -3.9080    -1.6230    -0.0850 ca         1 KF4       0.009800
     15 N3           2.6960    -2.3690     0.2410 nd         1 KF4      -0.579100
     16 O1           2.4820     2.3050    -0.2780 o          1 KF4      -0.565100
     17 N5           4.8700     0.5700    -0.1920 nd         1 KF4      -0.606000
     18 C15          6.2010    -1.5180    -0.0150 cc         1 KF4      -0.220000
     19 C16          5.1290    -2.3930     0.1330 cd         1 KF4      -0.038000
     20 N4           3.9080    -1.7280     0.1120 na         1 KF4       0.114900
     21 N           -1.3020     4.3210    -0.2850 nc         1 KF4      -0.516800
     22 C1          -2.2200    -0.2410     0.9410 ca         1 KF4       0.202100
     23 O           -1.2650    -0.0020     1.9110 os         1 KF4      -0.317100
     24 C           -0.9650    -0.9470     2.9530 c3         1 KF4       0.141900
     25 C17         -5.2280    -1.1740    -1.8270 cc         1 KF4       0.371800
     26 N6          -5.5870    -2.4150    -1.4550 nd         1 KF4      -0.519100
     27 N7          -4.7490    -2.6790    -0.3610 na         1 KF4      -0.065400
     28 C2          -2.9360    -1.4660     0.9050 ca         1 KF4      -0.246000
     29 H2          -3.7350     1.3320    -1.7370 ha         1 KF4       0.124000
     30 H3           0.7660     4.1330    -0.2970 h4         1 KF4       0.050100
     31 H4           0.8230    -1.5000     0.2270 h4         1 KF4       0.048800
     32 H5          -3.2800     3.5940    -0.2270 hn         1 KF4       0.371000
     33 H6           0.1400     0.2550     0.0730 hn         1 KF4       0.315500
     34 H7           7.2160    -1.9010    -0.0180 ha         1 KF4       0.146000
     35 H8           5.1580    -3.4690     0.2540 h4         1 KF4       0.165000
     36 H9          -1.8550    -1.1510     3.5620 h1         1 KF4       0.046700
     37 H10         -0.6000    -1.8920     2.5320 h1         1 KF4       0.046700
     38 H11         -0.1860    -0.5480     3.6140 h1         1 KF4       0.046700
     39 H12         -5.7440    -0.7360    -2.6710 h4         1 KF4       0.051800
     40 H13         -4.7890    -3.5620     0.1450 hn         1 KF4       0.377000
     41 H14         -2.7580    -2.2670     1.6150 ha         1 KF4       0.129000
     42 H1           6.8890     0.5590    -0.2820 h4         1 KF4       0.037100
@<TRIPOS>BOND
     1     1     3 ar  
     2     1    14 ar  
     3     1    25 1   
     4     2    17 2   
     5     2    18 1   
     6     2    42 1   
     7     3     4 ar  
     8     3    29 1   
     9     4     6 1   
    10     4    22 ar  
    11     5     9 1   
    12     5    10 1   
    13     5    11 2   
    14     6     7 2   
    15     6    12 1   
    16     7     8 1   
    17     7    13 1   
    18     8    21 2   
    19     8    30 1   
    20     9    13 1   
    21     9    16 2   
    22    10    15 2   
    23    10    31 1   
    24    11    17 1   
    25    11    20 1   
    26    12    21 1   
    27    12    32 1   
    28    13    33 1   
    29    14    27 1   
    30    14    28 ar  
    31    15    20 1   
    32    18    19 2   
    33    18    34 1   
    34    19    20 1   
    35    19    35 1   
    36    22    23 1   
    37    22    28 ar  
    38    23    24 1   
    39    24    36 1   
    40    24    37 1   
    41    24    38 1   
    42    25    26 2   
    43    25    39 1   
    44    26    27 1   
    45    27    40 1   
    46    28    41 1   
@<TRIPOS>SUBSTRUCTURE
     1 KF4         1 TEMP              0 ****  ****    0 ROOT
