@<TRIPOS>MOLECULE
KF4
   42    46     1     0     0
SMALL
bcc


@<TRIPOS>ATOM
      1 C4          -4.4380    -0.5650    -0.5960 ca         1 KF4      -0.274900
      2 C14          5.7650    -0.2050     1.0780 cc         1 KF4       0.443200
      3 C5          -3.7050     0.6090    -0.7910 ca         1 KF4      -0.008000
      4 C6          -2.5140     0.7830    -0.1190 ca         1 KF4      -0.097000
      5 C11          2.3910    -0.1570    -0.2330 cc         1 KF4      -0.357800
      6 C7          -1.7360     2.0060    -0.3160 cc         1 KF4      -0.054300
      7 C8          -0.4090     2.2140    -0.6470 cd         1 KF4      -0.112700
      8 C9          -0.2730     3.6070    -0.7620 cd         1 KF4       0.327200
      9 C10          1.6510     1.0970    -0.0750 c          1 KF4       0.724300
     10 C12          1.9820    -1.3830    -0.7790 cc         1 KF4       0.409500
     11 C13          3.6910    -0.4040     0.2120 cd         1 KF4       0.423500
     12 N1          -2.2830     3.2370    -0.2730 na         1 KF4       0.001400
     13 N2           0.5520     1.2250    -0.8630 ns         1 KF4      -0.448100
     14 C3          -3.9390    -1.5480     0.2720 ca         1 KF4       0.009800
     15 N3           2.9050    -2.3220    -0.7040 nd         1 KF4      -0.579100
     16 O1           2.0040     1.9690     0.7020 o          1 KF4      -0.565100
     17 N5           4.6160     0.3560     0.8060 nd         1 KF4      -0.606000
     18 C15          6.0720    -1.5520     0.7810 cc         1 KF4      -0.303300
     19 C16          5.1230    -2.3110     0.1720 cd         1 KF4      -0.005300
     20 N4           3.9400    -1.7240    -0.1070 na         1 KF4       0.064200
     21 N           -1.4200     4.2140    -0.5240 nc         1 KF4      -0.516800
     22 C1          -2.0420    -0.2250     0.7800 ca         1 KF4       0.202100
     23 O           -0.9000     0.0730     1.4140 os         1 KF4      -0.293900
     24 C           -0.3290    -0.8810     2.2860 c3         1 KF4       0.118700
     25 C17         -5.6550    -1.1130    -1.0850 cc         1 KF4       0.371800
     26 N6          -5.8710    -2.2950    -0.5690 nd         1 KF4      -0.519100
     27 N7          -4.8380    -2.5540     0.2440 na         1 KF4      -0.015100
     28 C2          -2.7380    -1.4000     0.9750 ca         1 KF4      -0.264000
     29 H2          -4.0570     1.3680    -1.4790 ha         1 KF4       0.142000
     30 H3           0.6130     4.1730    -1.0060 h4         1 KF4       0.050100
     31 H4           1.0270    -1.6310    -1.2200 h4         1 KF4       0.048800
     32 H5          -3.2380     3.4620    -0.0410 hn         1 KF4       0.320700
     33 H6           0.3030     0.4700    -1.4830 hn         1 KF4       0.315500
     34 H7           7.0350    -1.9710     1.0270 ha         1 KF4       0.164000
     35 H8           5.2390    -3.3470    -0.1110 h4         1 KF4       0.183000
     36 H9          -0.9800    -1.0970     3.1370 h1         1 KF4       0.046700
     37 H10         -0.0970    -1.8160     1.7700 h1         1 KF4       0.046700
     38 H11          0.5980    -0.4450     2.6500 h1         1 KF4       0.046700
     39 H12         -6.3550    -0.6780    -1.7820 h4         1 KF4       0.051800
     40 H13         -4.8070    -3.4250     0.7490 hn         1 KF4       0.326700
     41 H14         -2.3930    -2.1740     1.6470 ha         1 KF4       0.147000
     42 H1           6.5120     0.4160     1.5580 h4         1 KF4       0.037100
@<TRIPOS>BOND
     1     1     3 ar  
     2     1    14 ar  
     3     1    25 1   
     4     2    17 2   
     5     2    18 1   
     6     2    42 1   
     7     3     4 ar  
     8     3    29 1   
     9     4     6 1   
    10     4    22 ar  
    11     5     9 1   
    12     5    10 1   
    13     5    11 2   
    14     6     7 2   
    15     6    12 1   
    16     7     8 1   
    17     7    13 1   
    18     8    21 2   
    19     8    30 1   
    20     9    13 1   
    21     9    16 2   
    22    10    15 2   
    23    10    31 1   
    24    11    17 1   
    25    11    20 1   
    26    12    21 1   
    27    12    32 1   
    28    13    33 1   
    29    14    27 1   
    30    14    28 ar  
    31    15    20 1   
    32    18    19 2   
    33    18    34 1   
    34    19    20 1   
    35    19    35 1   
    36    22    23 1   
    37    22    28 ar  
    38    23    24 1   
    39    24    36 1   
    40    24    37 1   
    41    24    38 1   
    42    25    26 2   
    43    25    39 1   
    44    26    27 1   
    45    27    40 1   
    46    28    41 1   
@<TRIPOS>SUBSTRUCTURE
     1 KF4         1 TEMP              0 ****  ****    0 ROOT
