@<TRIPOS>MOLECULE
KF5
   29    31     1     0     0
SMALL
bcc


@<TRIPOS>ATOM
      1 C2           2.3760     1.6640    -1.1200 ca         1 KF5       0.708900
      2 C4           0.9310     0.3190    -0.1590 ca         1 KF5       0.462800
      3 C5           1.9240    -0.5630     0.2350 ca         1 KF5      -0.230200
      4 C6           3.2410    -0.2200    -0.1220 ca         1 KF5       0.779200
      5 C8           0.1120    -1.3840     0.9390 cc         1 KF5       0.419700
      6 CAK         -1.5610     0.2980     0.0950 c6         1 KF5       0.261800
      7 CAM         -3.4600    -0.0790    -1.2300 c6         1 KF5       0.142400
      8 CAN         -4.3970     0.0050    -0.0390 c6         1 KF5      -0.117400
      9 CAO         -3.7800     0.8810     1.0460 c6         1 KF5      -0.075400
     10 CAP         -2.3730     0.3920     1.3790 c6         1 KF5      -0.119400
     11 N1           3.4290     0.9130    -0.8070 nb         1 KF5      -0.829000
     12 N3           1.1020     1.4490    -0.8410 nb         1 KF5      -0.749000
     13 N6           4.2930    -0.9800     0.1860 nv         1 KF5      -0.954500
     14 N7           1.3890    -1.6250     0.9190 nd         1 KF5      -0.557100
     15 N9          -0.2340    -0.2180     0.3110 na         1 KF5      -0.250000
     16 OAL         -2.1710    -0.5390    -0.8510 os         1 KF5      -0.419600
     17 H1           2.5970     2.5680    -1.6770 h5         1 KF5       0.045100
     18 H2          -0.6290    -2.0230     1.3960 h5         1 KF5       0.068800
     19 H3          -1.4320     1.3090    -0.3160 h2         1 KF5       0.079700
     20 H4          -3.8280    -0.7780    -1.9820 h1         1 KF5       0.052200
     21 H5          -3.3760     0.9090    -1.7060 h1         1 KF5       0.052200
     22 H6          -5.3560     0.4120    -0.3670 hc         1 KF5       0.054200
     23 H7          -4.5900    -0.9980     0.3520 hc         1 KF5       0.054200
     24 H8          -3.7300     1.9170     0.6950 hc         1 KF5       0.048700
     25 H9          -4.3980     0.8830     1.9440 hc         1 KF5       0.048700
     26 H10         -2.4280    -0.5870     1.8650 hc         1 KF5       0.059200
     27 H11         -1.8720     1.0730     2.0700 hc         1 KF5       0.059200
     28 H12          5.2230    -0.6690    -0.0330 hn         1 KF5       0.450800
     29 H13          4.1880    -1.8060     0.7490 hn         1 KF5       0.450800
@<TRIPOS>BOND
     1     1    11 ar  
     2     1    12 ar  
     3     1    17 1   
     4     2     3 ar  
     5     2    12 ar  
     6     2    15 1   
     7     3     4 ar  
     8     3    14 1   
     9     4    11 ar  
    10     4    13 1   
    11     5    14 2   
    12     5    15 1   
    13     5    18 1   
    14     6    10 1   
    15     6    15 1   
    16     6    16 1   
    17     6    19 1   
    18     7     8 1   
    19     7    16 1   
    20     7    20 1   
    21     7    21 1   
    22     8     9 1   
    23     8    22 1   
    24     8    23 1   
    25     9    10 1   
    26     9    24 1   
    27     9    25 1   
    28    10    26 1   
    29    10    27 1   
    30    13    28 1   
    31    13    29 1   
@<TRIPOS>SUBSTRUCTURE
     1 KF5         1 TEMP              0 ****  ****    0 ROOT
