@<TRIPOS>MOLECULE
KF5
   29    31     1     0     0
SMALL
No Charge or Current Charge


@<TRIPOS>ATOM
      1 C2           2.3800     1.4680    -1.4750 ca         1 KF5       0.182900
      2 C4           0.9110     0.2430    -0.2220 ca         1 KF5       0.134500
      3 C5           1.9480    -0.5260     0.2470 ca         1 KF5      -0.099600
      4 C6           3.2490    -0.2320    -0.2120 ca         1 KF5       0.450900
      5 C8           0.1870    -1.3220     1.2110 cc         1 KF5       0.419700
      6 CAK         -1.5410     0.3100     0.1950 c6         1 KF5       0.314300
      7 CAM         -3.4160     0.1830    -1.3200 c6         1 KF5       0.165600
      8 CAN         -4.4310     0.0840    -0.1530 c6         1 KF5      -0.117400
      9 CAO         -3.8620     0.7430     1.1290 c6         1 KF5      -0.075400
     10 CAP         -2.4520     0.1840     1.4440 c6         1 KF5      -0.119400
     11 N1           3.4720     0.7710    -1.0760 nb         1 KF5      -0.303000
     12 N3           1.0980     1.2570    -1.0910 nb         1 KF5      -0.223000
     13 N6           4.3450    -0.9290     0.1930 nv         1 KF5      -1.064900
     14 N7           1.5210    -1.5120     1.1480 nd         1 KF5      -0.557100
     15 N9          -0.1990    -0.2640     0.3860 na         1 KF5      -0.279300
     16 OAL         -2.1470    -0.3760    -0.9190 os         1 KF5      -0.466000
     17 H1           2.5500     2.2830    -2.1770 h5         1 KF5       0.045100
     18 H2          -0.5140    -1.8940     1.8070 h5         1 KF5       0.068800
     19 H3          -1.3990     1.3730    -0.0530 h2         1 KF5       0.079700
     20 H4          -3.7920    -0.3690    -2.1930 h1         1 KF5       0.052200
     21 H5          -3.2740     1.2330    -1.6150 h1         1 KF5       0.052200
     22 H6          -5.3770     0.5640    -0.4380 hc         1 KF5       0.054200
     23 H7          -4.6600    -0.9730     0.0410 hc         1 KF5       0.054200
     24 H8          -3.8050     1.8320     0.9910 hc         1 KF5       0.048700
     25 H9          -4.5380     0.5690     1.9780 hc         1 KF5       0.048700
     26 H10         -2.5430    -0.8680     1.7460 hc         1 KF5       0.059200
     27 H11         -2.0100     0.7250     2.2910 hc         1 KF5       0.059200
     28 H12          5.2560    -0.4960     0.0710 hn         1 KF5       0.506000
     29 H13          4.2320    -1.5360     1.0010 hn         1 KF5       0.506000
@<TRIPOS>BOND
     1     1    11 ar  
     2     1    12 ar  
     3     1    17 1   
     4     2     3 ar  
     5     2    12 ar  
     6     2    15 1   
     7     3     4 ar  
     8     3    14 1   
     9     4    11 ar  
    10     4    13 1   
    11     5    14 2   
    12     5    15 1   
    13     5    18 1   
    14     6    10 1   
    15     6    15 1   
    16     6    16 1   
    17     6    19 1   
    18     7     8 1   
    19     7    16 1   
    20     7    20 1   
    21     7    21 1   
    22     8     9 1   
    23     8    22 1   
    24     8    23 1   
    25     9    10 1   
    26     9    24 1   
    27     9    25 1   
    28    10    26 1   
    29    10    27 1   
    30    13    28 1   
    31    13    29 1   
@<TRIPOS>SUBSTRUCTURE
     1 KF5         1 TEMP              0 ****  ****    0 ROOT
