@<TRIPOS>MOLECULE
KF7
   47    50     1     0     0
SMALL
abcg2


@<TRIPOS>ATOM
      1 OAD         -4.2320     0.0950     1.8550 o          1 KF7      -0.903833
      2 CAM          3.4180    -0.4040    -0.0350 cc         1 KF7      -0.104600
      3 CAO          4.5910     0.4660    -0.0340 ca         1 KF7       0.040200
      4 CAL          2.1080    -0.0460    -0.1160 cd         1 KF7      -0.055200
      5 NAB         -0.9440    -0.1510    -0.3240 nu         1 KF7      -0.789100
      6 CAP          5.8570    -0.0080    -0.3790 ca         1 KF7      -0.118500
      7 CAQ          6.9550     0.8400    -0.3950 ca         1 KF7      -0.108500
      8 CAR          6.8330     2.1880    -0.0760 ca         1 KF7      -0.119300
      9 CAW          8.0110     3.1150    -0.1230 c3         1 KF7      -0.031800
     10 CAS          5.5670     2.6580     0.2760 ca         1 KF7      -0.108500
     11 CAT          4.4690     1.8180     0.3030 ca         1 KF7      -0.118500
     12 SAN          3.6030    -2.1400     0.0540 ss         1 KF7      -0.238900
     13 C5           1.2230    -1.1620    -0.1180 ca         1 KF7      -0.276800
     14 C6           1.8910    -2.3770    -0.0400 ca         1 KF7       0.223300
     15 N1           1.3190    -3.5810    -0.0450 nb         1 KF7      -0.278000
     16 C2           0.0020    -3.5250    -0.1500 ca         1 KF7       0.180900
     17 N3          -0.7700    -2.4530    -0.2330 nb         1 KF7      -0.240000
     18 C4          -0.1970    -1.2440    -0.2080 ca         1 KF7       0.445900
     19 CAC         -2.3900    -0.0980    -0.1570 c3         1 KF7      -0.070500
     20 PAA         -2.7440     0.3660     1.6370 p5         1 KF7       1.248500
     21 OAE         -2.3380     1.8470     1.7030 o          1 KF7      -0.903833
     22 OAU         -1.8230    -0.5580     2.4400 o          1 KF7      -0.903833
     23 CAV         -2.9320     0.8890    -1.1970 c3         1 KF7      -0.009100
     24 CAX         -4.4300     0.9780    -1.2650 ca         1 KF7      -0.023300
     25 CAY         -5.1490     0.1680    -2.1400 ca         1 KF7      -0.076500
     26 CAZ         -6.5330     0.2610    -2.2310 ca         1 KF7      -0.130500
     27 CBA         -7.2190     1.1810    -1.4500 ca         1 KF7      -0.143000
     28 CBB         -6.5100     1.9950    -0.5730 ca         1 KF7      -0.130500
     29 CBC         -5.1320     1.8840    -0.4730 ca         1 KF7      -0.076500
     30 H2           1.7910     0.9850    -0.2020 ha         1 KF7       0.199000
     31 H3          -0.4810     0.7270    -0.1460 hn         1 KF7       0.490000
     32 H4           6.0000    -1.0460    -0.6540 ha         1 KF7       0.121000
     33 H5           7.9240     0.4400    -0.6700 ha         1 KF7       0.094500
     34 H6           7.9630     3.7620    -1.0010 hc         1 KF7       0.027033
     35 H7           8.0420     3.7640     0.7520 hc         1 KF7       0.027033
     36 H8           8.9510     2.5660    -0.1710 hc         1 KF7       0.027033
     37 H9           5.4380     3.7010     0.5430 ha         1 KF7       0.094500
     38 H10          3.5080     2.2170     0.6030 ha         1 KF7       0.121000
     39 H11         -0.5130    -4.4810    -0.1700 h5         1 KF7       0.018100
     40 H12         -2.7790    -1.0940    -0.3710 h1         1 KF7       0.074700
     41 H14         -2.5240     1.8790    -0.9760 hc         1 KF7       0.019700
     42 H15         -2.5520     0.6040    -2.1830 hc         1 KF7       0.019700
     43 H16         -4.6190    -0.5410    -2.7670 ha         1 KF7       0.125000
     44 H17         -7.0740    -0.3760    -2.9200 ha         1 KF7       0.081000
     45 H18         -8.2950     1.2680    -1.5270 ha         1 KF7       0.072000
     46 H19         -7.0400     2.7160     0.0390 ha         1 KF7       0.081000
     47 H20         -4.5810     2.5010     0.2240 ha         1 KF7       0.125000
@<TRIPOS>BOND
     1     1    20 1   
     2     2     3 1   
     3     2     4 2   
     4     2    12 1   
     5     3     6 ar  
     6     3    11 ar  
     7     4    13 1   
     8     4    30 1   
     9     5    18 1   
    10     5    19 1   
    11     5    31 1   
    12     6     7 ar  
    13     6    32 1   
    14     7     8 ar  
    15     7    33 1   
    16     8     9 1   
    17     8    10 ar  
    18     9    34 1   
    19     9    35 1   
    20     9    36 1   
    21    10    11 ar  
    22    10    37 1   
    23    11    38 1   
    24    12    14 1   
    25    13    14 ar  
    26    13    18 ar  
    27    14    15 ar  
    28    15    16 ar  
    29    16    17 ar  
    30    16    39 1   
    31    17    18 ar  
    32    19    20 1   
    33    19    23 1   
    34    19    40 1   
    35    20    21 1   
    36    20    22 1   
    37    23    24 1   
    38    23    41 1   
    39    23    42 1   
    40    24    25 ar  
    41    24    29 ar  
    42    25    26 ar  
    43    25    43 1   
    44    26    27 ar  
    45    26    44 1   
    46    27    28 ar  
    47    27    45 1   
    48    28    29 ar  
    49    28    46 1   
    50    29    47 1   
@<TRIPOS>SUBSTRUCTURE
     1 KF7         1 TEMP              0 ****  ****    0 ROOT
