@<TRIPOS>MOLECULE
KF7
   47    50     1     0     0
SMALL
No Charge or Current Charge


@<TRIPOS>ATOM
      1 OAD         -4.4270    -0.4530     1.7240 o          1 KF7      -0.903833
      2 CAM          3.5330    -0.5920     0.0030 cc         1 KF7      -0.104600
      3 CAO          4.6210     0.3890    -0.0590 ca         1 KF7       0.040200
      4 CAL          2.2060    -0.2210    -0.1210 cd         1 KF7      -0.055200
      5 NAB         -0.8570    -0.1990    -0.3260 nu         1 KF7      -0.789100
      6 CAP          5.8720     0.0170    -0.5910 ca         1 KF7      -0.118500
      7 CAQ          6.9280     0.9420    -0.6560 ca         1 KF7      -0.108500
      8 CAR          6.7530     2.2540    -0.1820 ca         1 KF7      -0.119300
      9 CAW          7.8950     3.2570    -0.2540 c3         1 KF7      -0.031800
     10 CAS          5.5100     2.6310     0.3570 ca         1 KF7      -0.108500
     11 CAT          4.4530     1.7060     0.4200 ca         1 KF7      -0.118500
     12 SAN          3.7350    -2.3610     0.1430 ss         1 KF7      -0.238900
     13 C5           1.2870    -1.3420    -0.0860 ca         1 KF7      -0.276800
     14 C6           1.9610    -2.5370     0.0490 ca         1 KF7       0.223300
     15 N1           1.3290    -3.7220     0.0950 nb         1 KF7      -0.278000
     16 C2          -0.0190    -3.6620    -0.0020 ca         1 KF7       0.180900
     17 N3          -0.7720    -2.5470    -0.1380 nb         1 KF7      -0.240000
     18 C4          -0.1130    -1.3690    -0.1760 ca         1 KF7       0.445900
     19 CAC         -2.3400    -0.0390    -0.0930 c3         1 KF7      -0.070500
     20 PAA         -3.0190     0.0430     1.6930 p5         1 KF7       1.248500
     21 OAE         -2.9620     1.4520     2.1890 o          1 KF7      -0.903833
     22 OAU         -2.1810    -0.8180     2.5810 o          1 KF7      -0.903833
     23 CAV         -2.8350     1.1480    -0.9650 c3         1 KF7      -0.009100
     24 CAX         -4.3450     1.1850    -1.1810 ca         1 KF7      -0.023300
     25 CAY         -4.9740     0.1930    -1.9610 ca         1 KF7      -0.076500
     26 CAZ         -6.3610     0.2400    -2.1880 ca         1 KF7      -0.130500
     27 CBA         -7.1280     1.2810    -1.6410 ca         1 KF7      -0.143000
     28 CBB         -6.5090     2.2750    -0.8660 ca         1 KF7      -0.130500
     29 CBC         -5.1220     2.2290    -0.6380 ca         1 KF7      -0.076500
     30 H2           1.8940     0.8100    -0.2650 ha         1 KF7       0.199000
     31 H3          -0.2960     0.6490    -0.2720 hn         1 KF7       0.490000
     32 H4           6.0250    -0.9910    -0.9660 ha         1 KF7       0.121000
     33 H5           7.8840     0.6360    -1.0770 ha         1 KF7       0.094500
     34 H6           7.8730     3.8050    -1.2030 hc         1 KF7       0.027033
     35 H7           7.8360     3.9900     0.5590 hc         1 KF7       0.027033
     36 H8           8.8700     2.7590    -0.1770 hc         1 KF7       0.027033
     37 H9           5.3610     3.6420     0.7310 ha         1 KF7       0.094500
     38 H10          3.5080     2.0170     0.8580 ha         1 KF7       0.121000
     39 H11         -0.5530    -4.6100     0.0310 h5         1 KF7       0.018100
     40 H12         -2.8420    -0.9350    -0.4760 h1         1 KF7       0.074700
     41 H14         -2.4820     2.0900    -0.5290 hc         1 KF7       0.019700
     42 H15         -2.3580     1.0830    -1.9520 hc         1 KF7       0.019700
     43 H16         -4.3850    -0.6110    -2.3950 ha         1 KF7       0.125000
     44 H17         -6.8380    -0.5290    -2.7910 ha         1 KF7       0.081000
     45 H18         -8.2010     1.3180    -1.8170 ha         1 KF7       0.072000
     46 H19         -7.1010     3.0830    -0.4430 ha         1 KF7       0.081000
     47 H20         -4.6500     3.0050    -0.0390 ha         1 KF7       0.125000
@<TRIPOS>BOND
     1     1    20 1   
     2     2     3 1   
     3     2     4 2   
     4     2    12 1   
     5     3     6 ar  
     6     3    11 ar  
     7     4    13 1   
     8     4    30 1   
     9     5    18 1   
    10     5    19 1   
    11     5    31 1   
    12     6     7 ar  
    13     6    32 1   
    14     7     8 ar  
    15     7    33 1   
    16     8     9 1   
    17     8    10 ar  
    18     9    34 1   
    19     9    35 1   
    20     9    36 1   
    21    10    11 ar  
    22    10    37 1   
    23    11    38 1   
    24    12    14 1   
    25    13    14 ar  
    26    13    18 ar  
    27    14    15 ar  
    28    15    16 ar  
    29    16    17 ar  
    30    16    39 1   
    31    17    18 ar  
    32    19    20 1   
    33    19    23 1   
    34    19    40 1   
    35    20    21 1   
    36    20    22 1   
    37    23    24 1   
    38    23    41 1   
    39    23    42 1   
    40    24    25 ar  
    41    24    29 ar  
    42    25    26 ar  
    43    25    43 1   
    44    26    27 ar  
    45    26    44 1   
    46    27    28 ar  
    47    27    45 1   
    48    28    29 ar  
    49    28    46 1   
    50    29    47 1   
@<TRIPOS>SUBSTRUCTURE
     1 KF7         1 TEMP              0 ****  ****    0 ROOT
