@<TRIPOS>MOLECULE
KFA
   47    50     1     0     0
SMALL
bcc


@<TRIPOS>ATOM
      1 C5           0.3830    -0.0980    -0.8290 ca         1 KFA      -0.417400
      2 C6           0.8430    -0.6350    -2.0240 ca         1 KFA       0.547600
      3 N1           0.0870    -0.9580    -3.0730 nb         1 KFA      -0.807000
      4 C2          -1.1960    -0.6980    -2.8840 ca         1 KFA       0.706900
      5 N3          -1.7800    -0.1860    -1.8130 nb         1 KFA      -0.790000
      6 C4          -1.0250     0.1070    -0.7490 ca         1 KFA       0.748200
      7 CAP          4.0140    -0.0530     1.7050 ca         1 KFA      -0.132500
      8 CAQ          5.2310     0.0730     2.3540 ca         1 KFA      -0.126500
      9 CAR          6.4280     0.1500     1.6430 ca         1 KFA      -0.115300
     10 CAW          7.7460     0.2490     2.3520 c3         1 KFA      -0.032800
     11 CAS          6.3580     0.1040     0.2530 ca         1 KFA      -0.126500
     12 CAT          5.1440    -0.0140    -0.4040 ca         1 KFA      -0.132500
     13 CAO          3.9470    -0.0940     0.3100 ca         1 KFA       0.036200
     14 CAM          2.6560    -0.2030    -0.3640 cc         1 KFA      -0.100600
     15 SAN          2.5610    -0.8490    -1.9860 ss         1 KFA      -0.241900
     16 CAL          1.4280     0.1420     0.1080 cd         1 KFA      -0.007200
     17 NAB         -1.5850     0.5930     0.3520 nu         1 KFA      -0.717900
     18 CAC         -2.9990     0.7530     0.6200 c3         1 KFA       0.087300
     19 PAA         -3.1770     2.3050     1.6690 p5         1 KFA       1.105700
     20 OAE         -2.0940     2.0910     2.7410 o          1 KFA      -0.907833
     21 OAU         -2.8870     3.4690     0.7200 o          1 KFA      -0.907833
     22 OAD         -4.6110     2.2670     2.2010 o          1 KFA      -0.907833
     23 CAV         -3.5540    -0.4890     1.3380 c3         1 KFA      -0.036100
     24 CAX         -3.2950    -1.7590     0.5830 ca         1 KFA      -0.029300
     25 CAY         -4.1940    -2.2130    -0.3800 ca         1 KFA      -0.130500
     26 CAZ         -3.9160    -3.3330    -1.1480 ca         1 KFA      -0.139000
     27 CBA         -2.7220    -4.0230    -0.9680 ca         1 KFA      -0.168000
     28 CBB         -1.8230    -3.5900    -0.0040 ca         1 KFA      -0.139000
     29 CBC         -2.1120    -2.4720     0.7670 ca         1 KFA      -0.130500
     30 H1          -1.8550    -0.9310    -3.7140 h5         1 KFA       0.017100
     31 H4           8.1660    -0.7430     2.5330 hc         1 KFA       0.027700
     32 H5           8.4750     0.8060     1.7650 hc         1 KFA       0.027700
     33 H6           7.6430     0.7390     3.3200 hc         1 KFA       0.027700
     34 H7           7.2670     0.1710    -0.3330 ha         1 KFA       0.113500
     35 H8           5.1380    -0.0230    -1.4880 ha         1 KFA       0.138500
     36 H9           1.2820     0.5760     1.0890 ha         1 KFA       0.165000
     37 H11         -0.9980     0.8270     1.1400 hn         1 KFA       0.472800
     38 H12         -3.5170     0.8690    -0.3340 h1         1 KFA       0.066700
     39 H15         -3.1020    -0.5420     2.3330 hc         1 KFA       0.068200
     40 H16         -4.6250    -0.3390     1.4820 hc         1 KFA       0.068200
     41 H17         -5.1230    -1.6750    -0.5350 ha         1 KFA       0.129500
     42 H18         -4.6290    -3.6710    -1.8890 ha         1 KFA       0.103500
     43 H19         -2.5010    -4.8960    -1.5700 ha         1 KFA       0.099000
     44 H20         -0.8920    -4.1220     0.1480 ha         1 KFA       0.103500
     45 H21         -1.4010    -2.1410     1.5150 ha         1 KFA       0.129500
     46 H2           3.1100    -0.1330     2.2950 ha         1 KFA       0.138500
     47 H3           5.2490     0.1020     3.4370 ha         1 KFA       0.113500
@<TRIPOS>BOND
     1     1     2 ar  
     2     1     6 ar  
     3     1    16 1   
     4     2     3 ar  
     5     2    15 1   
     6     3     4 ar  
     7     4     5 ar  
     8     4    30 1   
     9     5     6 ar  
    10     6    17 1   
    11     7     8 ar  
    12     7    13 ar  
    13     7    46 1   
    14     8     9 ar  
    15     8    47 1   
    16     9    10 1   
    17     9    11 ar  
    18    10    31 1   
    19    10    32 1   
    20    10    33 1   
    21    11    12 ar  
    22    11    34 1   
    23    12    13 ar  
    24    12    35 1   
    25    13    14 1   
    26    14    15 1   
    27    14    16 2   
    28    16    36 1   
    29    17    18 1   
    30    17    37 1   
    31    18    19 1   
    32    18    23 1   
    33    18    38 1   
    34    19    20 1   
    35    19    21 1   
    36    19    22 1   
    37    23    24 1   
    38    23    39 1   
    39    23    40 1   
    40    24    25 ar  
    41    24    29 ar  
    42    25    26 ar  
    43    25    41 1   
    44    26    27 ar  
    45    26    42 1   
    46    27    28 ar  
    47    27    43 1   
    48    28    29 ar  
    49    28    44 1   
    50    29    45 1   
@<TRIPOS>SUBSTRUCTURE
     1 KFA         1 TEMP              0 ****  ****    0 ROOT
