@<TRIPOS>MOLECULE
KFA
   47    50     1     0     0
SMALL
No Charge or Current Charge


@<TRIPOS>ATOM
      1 C5           0.2970    -0.0310    -1.0760 ca         1 KFA      -0.286800
      2 C6           0.7160    -0.7150    -2.1980 ca         1 KFA       0.219300
      3 N1          -0.1180    -1.0400    -3.2000 nb         1 KFA      -0.281000
      4 C2          -1.4020    -0.6500    -3.0320 ca         1 KFA       0.180900
      5 N3          -1.9120     0.0230    -1.9750 nb         1 KFA      -0.264000
      6 C4          -1.0530     0.3340    -0.9820 ca         1 KFA       0.419900
      7 CAP          3.7910    -0.2380     1.6240 ca         1 KFA      -0.114500
      8 CAQ          4.9830    -0.1310     2.3620 ca         1 KFA      -0.108500
      9 CAR          6.2220    -0.0370     1.7020 ca         1 KFA      -0.115300
     10 CAW          7.5120     0.0750     2.5000 c3         1 KFA      -0.032800
     11 CAS          6.2560    -0.0600     0.2960 ca         1 KFA      -0.108500
     12 CAT          5.0640    -0.1680    -0.4410 ca         1 KFA      -0.114500
     13 CAO          3.8190    -0.2510     0.2130 ca         1 KFA       0.036200
     14 CAM          2.5870    -0.3680    -0.5750 cc         1 KFA      -0.100600
     15 SAN          2.4520    -1.1280    -2.1860 ss         1 KFA      -0.241900
     16 CAL          1.3880     0.1670    -0.1410 cd         1 KFA      -0.057200
     17 NAB         -1.5560     1.0020     0.1320 nu         1 KFA      -0.773100
     18 CAC         -2.9490     0.9020     0.7040 c3         1 KFA      -0.070500
     19 PAA         -3.6300     2.3610     1.7250 p5         1 KFA       1.263500
     20 OAE         -2.7430     2.5750     2.9080 o          1 KFA      -0.907833
     21 OAU         -3.6350     3.5920     0.8790 o          1 KFA      -0.907833
     22 OAD         -5.0200     2.0620     2.1780 o          1 KFA      -0.907833
     23 CAV         -3.0940    -0.4240     1.5070 c3         1 KFA      -0.036100
     24 CAX         -2.8430    -1.6850     0.6820 ca         1 KFA      -0.029300
     25 CAY         -3.8230    -2.1500    -0.2160 ca         1 KFA      -0.112500
     26 CAZ         -3.5860    -3.2970    -0.9940 ca         1 KFA      -0.121000
     27 CBA         -2.3680    -3.9860    -0.8780 ca         1 KFA      -0.150000
     28 CBB         -1.3880    -3.5310     0.0180 ca         1 KFA      -0.121000
     29 CBC         -1.6250    -2.3860     0.7990 ca         1 KFA      -0.112500
     30 H1          -2.0970    -0.9030    -3.8300 h5         1 KFA       0.017100
     31 H4           7.9230    -0.9170     2.7190 hc         1 KFA       0.027700
     32 H5           8.2740     0.6400     1.9510 hc         1 KFA       0.027700
     33 H6           7.3470     0.5880     3.4550 hc         1 KFA       0.027700
     34 H7           7.2070     0.0050    -0.2280 ha         1 KFA       0.095500
     35 H8           5.1100    -0.1800    -1.5270 ha         1 KFA       0.120500
     36 H9           1.2850     0.6970     0.8020 ha         1 KFA       0.215000
     37 H11         -0.8500     1.4390     0.7250 hn         1 KFA       0.528000
     38 H12         -3.6710     0.8780    -0.1220 h1         1 KFA       0.066700
     39 H15         -2.4180    -0.3930     2.3710 hc         1 KFA       0.068200
     40 H16         -4.1060    -0.4780     1.9270 hc         1 KFA       0.068200
     41 H17         -4.7650    -1.6170    -0.3180 ha         1 KFA       0.111500
     42 H18         -4.3460    -3.6480    -1.6890 ha         1 KFA       0.085500
     43 H19         -2.1830    -4.8710    -1.4830 ha         1 KFA       0.081000
     44 H20         -0.4420    -4.0610     0.1070 ha         1 KFA       0.085500
     45 H21         -0.8570    -2.0340     1.4820 ha         1 KFA       0.111500
     46 H2           2.8490    -0.3270     2.1580 ha         1 KFA       0.120500
     47 H3           4.9430    -0.1250     3.4490 ha         1 KFA       0.095500
@<TRIPOS>BOND
     1     1     2 ar  
     2     1     6 ar  
     3     1    16 1   
     4     2     3 ar  
     5     2    15 1   
     6     3     4 ar  
     7     4     5 ar  
     8     4    30 1   
     9     5     6 ar  
    10     6    17 1   
    11     7     8 ar  
    12     7    13 ar  
    13     7    46 1   
    14     8     9 ar  
    15     8    47 1   
    16     9    10 1   
    17     9    11 ar  
    18    10    31 1   
    19    10    32 1   
    20    10    33 1   
    21    11    12 ar  
    22    11    34 1   
    23    12    13 ar  
    24    12    35 1   
    25    13    14 1   
    26    14    15 1   
    27    14    16 2   
    28    16    36 1   
    29    17    18 1   
    30    17    37 1   
    31    18    19 1   
    32    18    23 1   
    33    18    38 1   
    34    19    20 1   
    35    19    21 1   
    36    19    22 1   
    37    23    24 1   
    38    23    39 1   
    39    23    40 1   
    40    24    25 ar  
    41    24    29 ar  
    42    25    26 ar  
    43    25    41 1   
    44    26    27 ar  
    45    26    42 1   
    46    27    28 ar  
    47    27    43 1   
    48    28    29 ar  
    49    28    44 1   
    50    29    45 1   
@<TRIPOS>SUBSTRUCTURE
     1 KFA         1 TEMP              0 ****  ****    0 ROOT
