@<TRIPOS>MOLECULE
KFB
   18    17     1     0     0
SMALL
bcc


@<TRIPOS>ATOM
      1 CA           0.9250    -0.6720    -0.0700 c3         1 KFB      -0.203400
      2 CB          -0.2690     0.2680    -0.0110 c3         1 KFB      -0.055400
      3 CG          -1.5990    -0.4750    -0.0460 c3         1 KFB      -0.082400
      4 CD          -2.8000     0.4580     0.0050 c3         1 KFB       0.142800
      5 C            2.3150    -0.0120    -0.0430 c          1 KFB       0.927600
      6 O            2.3700     1.2320     0.0280 o          1 KFB      -0.849300
      7 O1           3.2900    -0.7910    -0.0960 o          1 KFB      -0.849300
      8 H4           0.8710    -1.3870     0.7600 hc         1 KFB       0.015700
      9 H5          -0.2160     0.8760     0.8970 hc         1 KFB       0.037200
     10 H6          -0.2260     0.9730    -0.8470 hc         1 KFB       0.037200
     11 H7          -1.6620    -1.0860    -0.9530 hc         1 KFB       0.031700
     12 H8          -1.6500    -1.1740     0.7970 hc         1 KFB       0.031700
     13 H9          -2.7060     1.1070     0.8880 h1         1 KFB       0.023200
     14 H11         -2.7710     1.1210    -0.8640 h1         1 KFB       0.023200
     15 N1          -4.0490    -0.2910    -0.0340 n8         1 KFB      -0.889800
     16 H1           0.8600    -1.2900    -0.9740 hc         1 KFB       0.015700
     17 H2          -4.1380    -0.8280     0.8210 hn         1 KFB       0.321800
     18 H3          -4.8300     0.3520    -0.0310 hn         1 KFB       0.321800
@<TRIPOS>BOND
     1     1     2 1   
     2     1     5 1   
     3     1     8 1   
     4     1    16 1   
     5     2     3 1   
     6     2     9 1   
     7     2    10 1   
     8     3     4 1   
     9     3    11 1   
    10     3    12 1   
    11     4    13 1   
    12     4    14 1   
    13     4    15 1   
    14     5     6 1   
    15     5     7 1   
    16    15    17 1   
    17    15    18 1   
@<TRIPOS>SUBSTRUCTURE
     1 KFB         1 TEMP              0 ****  ****    0 ROOT
