@<TRIPOS>MOLECULE
KFB
   18    17     1     0     0
SMALL
No Charge or Current Charge


@<TRIPOS>ATOM
      1 CA           0.9750    -0.7490     0.1310 c3         1 KFB      -0.203400
      2 CB          -0.2330     0.1950    -0.0890 c3         1 KFB      -0.055400
      3 CG          -1.5970    -0.5200     0.0370 c3         1 KFB      -0.082400
      4 CD          -2.7930     0.4300    -0.1840 c3         1 KFB       0.142800
      5 C            2.2940     0.0320    -0.0090 c          1 KFB       0.717000
      6 O            2.7570     0.5670     0.9880 o          1 KFB      -0.744000
      7 O1           2.7960     0.1240    -1.1190 o          1 KFB      -0.744000
      8 H4           0.8680    -1.1410     1.1510 hc         1 KFB       0.015700
      9 H5          -0.1880     1.0140     0.6410 hc         1 KFB       0.037200
     10 H6          -0.1570     0.6510    -1.0840 hc         1 KFB       0.037200
     11 H7          -1.6430    -1.3360    -0.6950 hc         1 KFB       0.031700
     12 H8          -1.6740    -0.9740     1.0320 hc         1 KFB       0.031700
     13 H9          -2.7640     1.2400     0.5580 h1         1 KFB       0.023200
     14 H11         -2.7330     0.8740    -1.1880 h1         1 KFB       0.023200
     15 N1          -4.0800    -0.2780    -0.0580 n8         1 KFB      -1.000200
     16 H1           0.9010    -1.5190    -0.6470 hc         1 KFB       0.015700
     17 H2          -4.1700    -0.6330     0.9010 hn         1 KFB       0.377000
     18 H3          -4.8440     0.4040    -0.1390 hn         1 KFB       0.377000
@<TRIPOS>BOND
     1     1     2 1   
     2     1     5 1   
     3     1     8 1   
     4     1    16 1   
     5     2     3 1   
     6     2     9 1   
     7     2    10 1   
     8     3     4 1   
     9     3    11 1   
    10     3    12 1   
    11     4    13 1   
    12     4    14 1   
    13     4    15 1   
    14     5     6 1   
    15     5     7 1   
    16    15    17 1   
    17    15    18 1   
@<TRIPOS>SUBSTRUCTURE
     1 KFB         1 TEMP              0 ****  ****    0 ROOT
