@<TRIPOS>MOLECULE
KFC
   49    52     1     0     0
SMALL
abcg2


@<TRIPOS>ATOM
      1 C1         141.7440   118.9490    99.4260 ca         1 KFC      -0.078300
      2 C2         141.7430   120.2960    98.9970 ca         1 KFC      -0.094000
      3 C3         142.0240   121.3140    99.8630 ca         1 KFC      -0.089000
      4 C11        142.8740   121.8390   103.2820 ca         1 KFC       0.348500
      5 C12        142.8700   120.5620   103.8490 ca         1 KFC      -0.212000
      6 C13        142.5760   119.4670   103.0560 ca         1 KFC       0.369000
      7 C15        141.4510   117.8550    98.4450 c3         1 KFC      -0.047800
      8 C16        142.9820   117.7410   104.7820 ca         1 KFC       0.290000
      9 C17        142.2100   116.8230   105.4920 ca         1 KFC      -0.142000
     10 C18        142.6620   116.3170   106.7020 ca         1 KFC      -0.084000
     11 C19        143.8780   116.7320   107.2270 ca         1 KFC      -0.127000
     12 C20        144.6490   117.6440   106.5180 ca         1 KFC      -0.084000
     13 C21        144.2150   118.1400   105.2980 ca         1 KFC      -0.142000
     14 C22        143.4900   125.4510   104.2160 c5         1 KFC       0.116700
     15 C23        142.2440   126.0020   104.9130 c5         1 KFC      -0.097900
     16 C24        141.3940   126.5630   103.7670 c5         1 KFC      -0.081400
     17 C25        142.4030   126.9820   102.6710 c5         1 KFC      -0.081400
     18 C26        143.7850   126.5350   103.1820 c5         1 KFC      -0.097900
     19 C4         142.0210   118.6800   100.7430 ca         1 KFC      -0.093000
     20 C6         143.1880   123.0160   104.1730 c          1 KFC       0.499600
     21 C8         142.2950   119.7080   101.6720 ca         1 KFC      -0.111000
     22 C9         142.3130   121.0500   101.2220 ca         1 KFC       0.296000
     23 N10        142.6060   122.0940   102.0250 nb         1 KFC      -0.707000
     24 N14        142.5290   118.1900   103.5360 nu         1 KFC      -0.984000
     25 N7         143.2200   124.1930   103.5450 ns         1 KFC      -0.483900
     26 O5         143.4010   122.8640   105.3690 o          1 KFC      -0.611100
     27 H1         141.5260   120.5190    97.9590 ha         1 KFC       0.116000
     28 H2         142.0360   122.3430    99.5290 ha         1 KFC       0.129000
     29 H3         143.0720   120.4530   104.9040 ha         1 KFC       0.158000
     30 H4         142.1290   117.8970    97.5910 hc         1 KFC       0.044033
     31 H5         141.5450   116.8700    98.9010 hc         1 KFC       0.044033
     32 H6         140.4370   117.9450    98.0510 hc         1 KFC       0.044033
     33 H7         141.2530   116.5070   105.0930 ha         1 KFC       0.120000
     34 H8         142.0520   115.6030   107.2390 ha         1 KFC       0.116000
     35 H9         144.2250   116.3440   108.1760 ha         1 KFC       0.116000
     36 H10        145.6060   117.9640   106.9090 ha         1 KFC       0.116000
     37 H11        144.8450   118.8230   104.7430 ha         1 KFC       0.120000
     38 H12        144.3190   125.3040   104.9100 h1         1 KFC       0.074700
     39 H13        142.5520   126.8030   105.5910 hc         1 KFC       0.053700
     40 H14        141.7240   125.2540   105.5130 hc         1 KFC       0.053700
     41 H15        140.7710   127.3950   104.0960 hc         1 KFC       0.042450
     42 H16        140.7190   125.7950   103.3880 hc         1 KFC       0.042450
     43 H17        142.3830   128.0550   102.4850 hc         1 KFC       0.042450
     44 H18        142.1630   126.5010   101.7220 hc         1 KFC       0.042450
     45 H19        144.4520   126.1950   102.3880 hc         1 KFC       0.053700
     46 H20        144.2860   127.3590   103.6910 hc         1 KFC       0.053700
     47 H21        142.0430   117.6420   101.0550 ha         1 KFC       0.107000
     48 H22        141.9450   117.5390   103.0360 hn         1 KFC       0.496000
     49 H23        143.0150   124.1840   102.5550 hn         1 KFC       0.342500
@<TRIPOS>BOND
     1     1     2 ar  
     2     1     7 1   
     3     1    19 ar  
     4     2     3 ar  
     5     2    27 1   
     6     3    22 ar  
     7     3    28 1   
     8     4     5 ar  
     9     4    20 1   
    10     4    23 ar  
    11     5     6 ar  
    12     5    29 1   
    13     6    21 ar  
    14     6    24 1   
    15     7    30 1   
    16     7    31 1   
    17     7    32 1   
    18     8     9 ar  
    19     8    13 ar  
    20     8    24 1   
    21     9    10 ar  
    22     9    33 1   
    23    10    11 ar  
    24    10    34 1   
    25    11    12 ar  
    26    11    35 1   
    27    12    13 ar  
    28    12    36 1   
    29    13    37 1   
    30    14    15 1   
    31    14    18 1   
    32    14    25 1   
    33    14    38 1   
    34    15    16 1   
    35    15    39 1   
    36    15    40 1   
    37    16    17 1   
    38    16    41 1   
    39    16    42 1   
    40    17    18 1   
    41    17    43 1   
    42    17    44 1   
    43    18    45 1   
    44    18    46 1   
    45    19    21 ar  
    46    19    47 1   
    47    20    25 1   
    48    20    26 2   
    49    21    22 ar  
    50    22    23 ar  
    51    24    48 1   
    52    25    49 1   
@<TRIPOS>SUBSTRUCTURE
     1 KFC         1 TEMP              0 ****  ****    0 ROOT
