@<TRIPOS>MOLECULE
KFC
   49    52     1     0     0
SMALL
No Charge or Current Charge


@<TRIPOS>ATOM
      1 C1         141.7050   118.9460    99.5010 ca         1 KFC      -0.078300
      2 C2         141.8100   120.2550    99.0050 ca         1 KFC      -0.094000
      3 C3         142.1270   121.3130    99.8720 ca         1 KFC      -0.089000
      4 C11        142.8430   121.9470   103.3700 ca         1 KFC       0.348500
      5 C12        142.7430   120.6680   103.9370 ca         1 KFC      -0.212000
      6 C13        142.4440   119.5680   103.1310 ca         1 KFC       0.369000
      7 C15        141.3660   117.7950    98.5670 c3         1 KFC      -0.047800
      8 C16        142.9060   117.6910   104.8260 ca         1 KFC       0.290000
      9 C17        142.2660   116.5870   105.4150 ca         1 KFC      -0.142000
     10 C18        142.8370   115.9420   106.5280 ca         1 KFC      -0.084000
     11 C19        144.0600   116.3960   107.0490 ca         1 KFC      -0.127000
     12 C20        144.7140   117.4880   106.4540 ca         1 KFC      -0.084000
     13 C21        144.1390   118.1300   105.3430 ca         1 KFC      -0.142000
     14 C22        143.4930   125.6050   104.3500 c5         1 KFC       0.116700
     15 C23        142.1130   126.1490   104.8110 c5         1 KFC      -0.097900
     16 C24        141.4150   126.5690   103.4820 c5         1 KFC      -0.081400
     17 C25        142.5800   126.9900   102.5270 c5         1 KFC      -0.081400
     18 C26        143.8990   126.6760   103.3050 c5         1 KFC      -0.097900
     19 C4         141.9120   118.7080   100.8710 ca         1 KFC      -0.093000
     20 C6         143.1730   123.1590   104.2600 c          1 KFC       0.499600
     21 C8         142.2250   119.7740   101.7510 ca         1 KFC      -0.111000
     22 C9         142.3390   121.0910   101.2450 ca         1 KFC       0.296000
     23 N10        142.6420   122.1420   102.0360 nb         1 KFC      -0.707000
     24 N14        142.3200   118.3000   103.7140 nu         1 KFC      -0.984000
     25 N7         143.2400   124.3710   103.5890 ns         1 KFC      -0.483900
     26 O5         143.3650   123.0740   105.4710 o          1 KFC      -0.611100
     27 H1         141.6500   120.4560    97.9480 ha         1 KFC       0.116000
     28 H2         142.2090   122.3220    99.4770 ha         1 KFC       0.129000
     29 H3         142.8780   120.5440   105.0050 ha         1 KFC       0.158000
     30 H4         141.6420   118.0220    97.5300 hc         1 KFC       0.044033
     31 H5         141.8970   116.8790    98.8540 hc         1 KFC       0.044033
     32 H6         140.2910   117.5790    98.5870 hc         1 KFC       0.044033
     33 H7         141.3190   116.2310   105.0180 ha         1 KFC       0.120000
     34 H8         142.3320   115.0930   106.9830 ha         1 KFC       0.116000
     35 H9         144.5040   115.8970   107.9080 ha         1 KFC       0.116000
     36 H10        145.6680   117.8320   106.8490 ha         1 KFC       0.116000
     37 H11        144.6660   118.9570   104.8770 ha         1 KFC       0.120000
     38 H12        144.2240   125.4880   105.1630 h1         1 KFC       0.074700
     39 H13        142.2460   127.0160   105.4690 hc         1 KFC       0.053700
     40 H14        141.5300   125.4120   105.3750 hc         1 KFC       0.053700
     41 H15        140.6990   127.3830   103.6410 hc         1 KFC       0.042450
     42 H16        140.8470   125.7340   103.0550 hc         1 KFC       0.042450
     43 H17        142.5220   128.0510   102.2580 hc         1 KFC       0.042450
     44 H18        142.5310   126.4280   101.5860 hc         1 KFC       0.042450
     45 H19        144.7070   126.3410   102.6450 hc         1 KFC       0.053700
     46 H20        144.2650   127.5770   103.8130 hc         1 KFC       0.053700
     47 H21        141.8320   117.6880   101.2370 ha         1 KFC       0.107000
     48 H22        141.6670   117.6950   103.2170 hn         1 KFC       0.496000
     49 H23        143.0600   124.3400   102.5910 hn         1 KFC       0.342500
@<TRIPOS>BOND
     1     1     2 ar  
     2     1     7 1   
     3     1    19 ar  
     4     2     3 ar  
     5     2    27 1   
     6     3    22 ar  
     7     3    28 1   
     8     4     5 ar  
     9     4    20 1   
    10     4    23 ar  
    11     5     6 ar  
    12     5    29 1   
    13     6    21 ar  
    14     6    24 1   
    15     7    30 1   
    16     7    31 1   
    17     7    32 1   
    18     8     9 ar  
    19     8    13 ar  
    20     8    24 1   
    21     9    10 ar  
    22     9    33 1   
    23    10    11 ar  
    24    10    34 1   
    25    11    12 ar  
    26    11    35 1   
    27    12    13 ar  
    28    12    36 1   
    29    13    37 1   
    30    14    15 1   
    31    14    18 1   
    32    14    25 1   
    33    14    38 1   
    34    15    16 1   
    35    15    39 1   
    36    15    40 1   
    37    16    17 1   
    38    16    41 1   
    39    16    42 1   
    40    17    18 1   
    41    17    43 1   
    42    17    44 1   
    43    18    45 1   
    44    18    46 1   
    45    19    21 ar  
    46    19    47 1   
    47    20    25 1   
    48    20    26 2   
    49    21    22 ar  
    50    22    23 ar  
    51    24    48 1   
    52    25    49 1   
@<TRIPOS>SUBSTRUCTURE
     1 KFC         1 TEMP              0 ****  ****    0 ROOT
