@<TRIPOS>MOLECULE
KFD
   68    74     1     0     0
SMALL
bcc


@<TRIPOS>ATOM
      1 CAL         -0.6070     1.4300    -1.8640 c6         1 KFD       0.183800
      2 CAM         -2.0770     1.8140    -1.9050 c6         1 KFD      -0.079400
      3 CAN         -2.3190     3.1280    -1.1730 c6         1 KFD      -0.074400
      4 CAO         -1.7240     3.0790     0.2290 c6         1 KFD      -0.079400
      5 CAP         -0.2640     2.6570     0.1910 c6         1 KFD       0.183800
      6 NAK         -0.1330     1.3720    -0.4800 nh         1 KFD      -0.645000
      7 CAJ          1.1120     0.7220    -0.3310 ca         1 KFD       0.059600
      8 CAI          2.3170     1.4220    -0.2640 ca         1 KFD      -0.114000
      9 CAH          3.4570     0.6720    -0.1110 ca         1 KFD      -0.005900
     10 OBM          4.7520     1.0960    -0.0110 os         1 KFD      -0.308700
     11 CAG          5.4700    -0.0420     0.1330 cc         1 KFD       0.775500
     12 NAQ          6.7910     0.0870     0.3000 nh         1 KFD      -0.739600
     13 CAR          7.5070     1.3190     0.0070 c6         1 KFD       0.190300
     14 CAS          8.6940     1.4390     0.9450 c6         1 KFD       0.117900
     15 OAT          9.5200     0.3000     0.8890 os         1 KFD      -0.397600
     16 CAU          8.8070    -0.8610     1.2500 c6         1 KFD       0.117900
     17 CAV          7.6240    -1.1040     0.3320 c6         1 KFD       0.190300
     18 NBL          4.7780    -1.1410     0.1220 nd         1 KFD      -0.653100
     19 CAF          3.4730    -0.7120    -0.0290 ca         1 KFD       0.115400
     20 CAE          2.2820    -1.4210    -0.0910 ca         1 KFD      -0.107000
     21 CAD          1.1030    -0.6910    -0.2380 ca         1 KFD       0.073600
     22 NAC         -0.1620    -1.2790    -0.2680 ns         1 KFD      -0.448100
     23 CAB         -0.5020    -2.5450    -0.5680 c          1 KFD       0.577600
     24 OAA          0.2780    -3.4540    -0.8050 o          1 KFD      -0.590100
     25 CAW         -1.9880    -2.7730    -0.6120 ca         1 KFD       0.362800
     26 NBB         -2.7730    -1.7370    -0.3530 nb         1 KFD      -0.685000
     27 CAX         -2.4750    -4.0280    -0.9430 ca         1 KFD      -0.191300
     28 CAY         -3.8520    -4.1900    -0.9920 ca         1 KFD      -0.099000
     29 CAZ         -4.6730    -3.1120    -0.7170 ca         1 KFD      -0.223300
     30 CBA         -4.0930    -1.8790    -0.4040 cp         1 KFD       0.488800
     31 CBC         -4.9080    -0.6880    -0.1020 cp         1 KFD      -0.308800
     32 CBK         -4.4230     0.3050     0.7420 ca         1 KFD      -0.002000
     33 CBJ         -5.2330     1.4030     0.9960 ca         1 KFD      -0.212100
     34 CBI         -5.1440     2.5950     1.7790 cc         1 KFD      -0.176200
     35 CBH         -6.3130     3.2700     1.5850 cd         1 KFD      -0.105100
     36 NBG         -7.1240     2.5720     0.7300 na         1 KFD      -0.275100
     37 CBF         -6.4950     1.4290     0.3550 ca         1 KFD       0.438800
     38 NBE         -6.9750     0.5070    -0.4630 nb         1 KFD      -0.685000
     39 CBD         -6.1830    -0.5300    -0.6750 ca         1 KFD       0.441200
     40 H1          -0.4600     0.4550    -2.3320 h1         1 KFD       0.036200
     41 H2          -0.0110     2.1520    -2.4440 h1         1 KFD       0.036200
     42 H3          -2.4000     1.8870    -2.9460 hc         1 KFD       0.048950
     43 H4          -2.6640     1.0160    -1.4400 hc         1 KFD       0.048950
     44 H5          -1.8560     3.9470    -1.7340 hc         1 KFD       0.040200
     45 H6          -3.3880     3.3450    -1.1210 hc         1 KFD       0.040200
     46 H7          -1.8040     4.0540     0.7160 hc         1 KFD       0.048950
     47 H8          -2.2830     2.3690     0.8430 hc         1 KFD       0.048950
     48 H9           0.3220     3.4430    -0.3130 h1         1 KFD       0.036200
     49 H10          0.1270     2.5630     1.2060 h1         1 KFD       0.036200
     50 H11          2.3480     2.5010    -0.3310 ha         1 KFD       0.149000
     51 H12          7.8480     1.3130    -1.0350 h1         1 KFD       0.065700
     52 H13          6.8610     2.1840     0.1430 h1         1 KFD       0.065700
     53 H14          9.2980     2.3000     0.6580 h1         1 KFD       0.056700
     54 H15          8.3320     1.6050     1.9690 h1         1 KFD       0.056700
     55 H16          9.4950    -1.7040     1.1890 h1         1 KFD       0.056700
     56 H17          8.4500    -0.7880     2.2870 h1         1 KFD       0.056700
     57 H18          7.0450    -1.9470     0.7030 h1         1 KFD       0.065700
     58 H19          7.9670    -1.3480    -0.6800 h1         1 KFD       0.065700
     59 H20          2.2770    -2.4960    -0.0080 ha         1 KFD       0.181000
     60 H21         -0.9310    -0.6260    -0.1370 hn         1 KFD       0.369500
     61 H22         -1.8050    -4.8490    -1.1530 ha         1 KFD       0.169000
     62 H23         -4.2810    -5.1520    -1.2360 ha         1 KFD       0.143000
     63 H24         -5.7470    -3.2330    -0.7270 ha         1 KFD       0.146000
     64 H25         -3.4430     0.2070     1.1910 ha         1 KFD       0.158000
     65 H26         -4.3230     2.9110     2.4010 ha         1 KFD       0.160000
     66 H27         -6.6380     4.2120     1.9960 h4         1 KFD       0.167000
     67 H28         -8.0430     2.8570     0.4330 hn         1 KFD       0.311700
     68 H29         -6.5640    -1.2790    -1.3590 h4         1 KFD       0.019100
@<TRIPOS>BOND
     1     1     2 1   
     2     1     6 1   
     3     1    40 1   
     4     1    41 1   
     5     2     3 1   
     6     2    42 1   
     7     2    43 1   
     8     3     4 1   
     9     3    44 1   
    10     3    45 1   
    11     4     5 1   
    12     4    46 1   
    13     4    47 1   
    14     5     6 1   
    15     5    48 1   
    16     5    49 1   
    17     6     7 1   
    18     7     8 ar  
    19     7    21 ar  
    20     8     9 ar  
    21     8    50 1   
    22     9    10 1   
    23     9    19 ar  
    24    10    11 1   
    25    11    12 1   
    26    11    18 2   
    27    12    13 1   
    28    12    17 1   
    29    13    14 1   
    30    13    51 1   
    31    13    52 1   
    32    14    15 1   
    33    14    53 1   
    34    14    54 1   
    35    15    16 1   
    36    16    17 1   
    37    16    55 1   
    38    16    56 1   
    39    17    57 1   
    40    17    58 1   
    41    18    19 1   
    42    19    20 ar  
    43    20    21 ar  
    44    20    59 1   
    45    21    22 1   
    46    22    23 1   
    47    22    60 1   
    48    23    24 2   
    49    23    25 1   
    50    25    26 ar  
    51    25    27 ar  
    52    26    30 ar  
    53    27    28 ar  
    54    27    61 1   
    55    28    29 ar  
    56    28    62 1   
    57    29    30 ar  
    58    29    63 1   
    59    30    31 1   
    60    31    32 ar  
    61    31    39 ar  
    62    32    33 ar  
    63    32    64 1   
    64    33    34 1   
    65    33    37 ar  
    66    34    35 2   
    67    34    65 1   
    68    35    36 1   
    69    35    66 1   
    70    36    37 1   
    71    36    67 1   
    72    37    38 ar  
    73    38    39 ar  
    74    39    68 1   
@<TRIPOS>SUBSTRUCTURE
     1 KFD         1 TEMP              0 ****  ****    0 ROOT
