@<TRIPOS>MOLECULE
KFD
   68    74     1     0     0
SMALL
No Charge or Current Charge


@<TRIPOS>ATOM
      1 CAL         -0.6520     1.5440    -1.9540 c6         1 KFD       0.183800
      2 CAM         -2.1770     1.7920    -1.8570 c6         1 KFD      -0.079400
      3 CAN         -2.4880     3.0880    -1.0710 c6         1 KFD      -0.074400
      4 CAO         -1.7850     3.0620     0.3070 c6         1 KFD      -0.079400
      5 CAP         -0.2690     2.7900     0.1630 c6         1 KFD       0.183800
      6 NAK         -0.0250     1.5370    -0.6030 nh         1 KFD      -0.783400
      7 CAJ          1.1700     0.8030    -0.3980 ca         1 KFD       0.198000
      8 CAI          2.4040     1.4850    -0.2940 ca         1 KFD      -0.096000
      9 CAH          3.5630     0.7280    -0.1000 ca         1 KFD      -0.005900
     10 OBM          4.8270     1.1960     0.0230 os         1 KFD      -0.308700
     11 CAG          5.5300     0.0110     0.1960 cc         1 KFD       0.775500
     12 NAQ          6.8950     0.0710     0.3610 nh         1 KFD      -0.739600
     13 CAR          7.6520     1.3480     0.1570 c6         1 KFD       0.190300
     14 CAS          8.9670     1.3930     0.9890 c6         1 KFD       0.141100
     15 OAT          9.7520     0.1970     0.7770 os         1 KFD      -0.444000
     16 CAU          9.0470    -1.0050     1.1660 c6         1 KFD       0.141100
     17 CAV          7.7370    -1.1690     0.3430 c6         1 KFD       0.190300
     18 NBL          4.8120    -1.1210     0.1890 nd         1 KFD      -0.653100
     19 CAF          3.5410    -0.6290    -0.0060 ca         1 KFD       0.115400
     20 CAE          2.3420    -1.3430    -0.1030 ca         1 KFD      -0.089000
     21 CAD          1.1360    -0.6210    -0.3060 ca         1 KFD      -0.019000
     22 NAC         -0.1320    -1.2630    -0.3930 ns         1 KFD      -0.122000
     23 CAB         -0.5060    -2.5890    -0.5670 c          1 KFD       0.510600
     24 OAA          0.3040    -3.5050    -0.7050 o          1 KFD      -0.590100
     25 CAW         -2.0190    -2.8160    -0.5970 ca         1 KFD       0.297500
     26 NBB         -2.8560    -1.7650    -0.3520 nb         1 KFD      -0.685000
     27 CAX         -2.5290    -4.1020    -0.8830 ca         1 KFD      -0.108000
     28 CAY         -3.9170    -4.3060    -0.9280 ca         1 KFD      -0.081000
     29 CAZ         -4.7570    -3.2080    -0.6850 ca         1 KFD      -0.140000
     30 CBA         -4.1940    -1.9410    -0.3990 cp         1 KFD       0.423500
     31 CBC         -5.0250    -0.7350    -0.1230 cp         1 KFD      -0.243500
     32 CBK         -4.5610     0.3220     0.7010 ca         1 KFD       0.016000
     33 CBJ         -5.4180     1.4100     0.8870 ca         1 KFD      -0.146800
     34 CBI         -5.2310     2.6020     1.6570 cc         1 KFD      -0.226200
     35 CBH         -6.3810     3.3580     1.5020 cd         1 KFD      -0.155100
     36 NBG         -7.2690     2.6490     0.6530 na         1 KFD      -0.325400
     37 CBF         -6.6560     1.4630     0.2950 ca         1 KFD       0.373500
     38 NBE         -7.1280     0.4790    -0.4910 nb         1 KFD      -0.685000
     39 CBD         -6.3210    -0.5950    -0.6880 ca         1 KFD       0.375900
     40 H1          -0.4790     0.5860    -2.4660 h1         1 KFD       0.036200
     41 H2          -0.1940     2.3310    -2.5730 h1         1 KFD       0.036200
     42 H3          -2.6090     1.8500    -2.8650 hc         1 KFD       0.048950
     43 H4          -2.6540     0.9360    -1.3640 hc         1 KFD       0.048950
     44 H5          -2.1450     3.9600    -1.6450 hc         1 KFD       0.040200
     45 H6          -3.5730     3.2000    -0.9410 hc         1 KFD       0.040200
     46 H7          -1.9450     4.0150     0.8290 hc         1 KFD       0.048950
     47 H8          -2.2310     2.2820     0.9380 hc         1 KFD       0.048950
     48 H9           0.2060     3.6420    -0.3470 h1         1 KFD       0.036200
     49 H10          0.1750     2.7150     1.1670 h1         1 KFD       0.036200
     50 H11          2.4600     2.5660    -0.3710 ha         1 KFD       0.131000
     51 H12          7.9030     1.4650    -0.9070 h1         1 KFD       0.065700
     52 H13          7.0430     2.2190     0.4400 h1         1 KFD       0.065700
     53 H14          9.5610     2.2710     0.6990 h1         1 KFD       0.056700
     54 H15          8.7280     1.4830     2.0580 h1         1 KFD       0.056700
     55 H16          9.6990    -1.8740     1.0050 h1         1 KFD       0.056700
     56 H17          8.8090    -0.9520     2.2380 h1         1 KFD       0.056700
     57 H18          7.1850    -2.0280     0.7520 h1         1 KFD       0.065700
     58 H19          8.0000    -1.4240    -0.6940 h1         1 KFD       0.065700
     59 H20          2.3630    -2.4230    -0.0060 ha         1 KFD       0.163000
     60 H21         -0.9140    -0.6190    -0.3330 hn         1 KFD       0.203000
     61 H22         -1.8520    -4.9310    -1.0720 ha         1 KFD       0.151000
     62 H23         -4.3310    -5.2890    -1.1450 ha         1 KFD       0.125000
     63 H24         -5.8340    -3.3420    -0.7020 ha         1 KFD       0.128000
     64 H25         -3.5830     0.2910     1.1780 ha         1 KFD       0.140000
     65 H26         -4.3640     2.8790     2.2560 ha         1 KFD       0.210000
     66 H27         -6.6310     4.3300     1.9250 h4         1 KFD       0.217000
     67 H28         -8.1920     2.9400     0.3530 hn         1 KFD       0.362000
     68 H29         -6.7260    -1.3650    -1.3420 h4         1 KFD       0.019100
@<TRIPOS>BOND
     1     1     2 1   
     2     1     6 1   
     3     1    40 1   
     4     1    41 1   
     5     2     3 1   
     6     2    42 1   
     7     2    43 1   
     8     3     4 1   
     9     3    44 1   
    10     3    45 1   
    11     4     5 1   
    12     4    46 1   
    13     4    47 1   
    14     5     6 1   
    15     5    48 1   
    16     5    49 1   
    17     6     7 1   
    18     7     8 ar  
    19     7    21 ar  
    20     8     9 ar  
    21     8    50 1   
    22     9    10 1   
    23     9    19 ar  
    24    10    11 1   
    25    11    12 1   
    26    11    18 2   
    27    12    13 1   
    28    12    17 1   
    29    13    14 1   
    30    13    51 1   
    31    13    52 1   
    32    14    15 1   
    33    14    53 1   
    34    14    54 1   
    35    15    16 1   
    36    16    17 1   
    37    16    55 1   
    38    16    56 1   
    39    17    57 1   
    40    17    58 1   
    41    18    19 1   
    42    19    20 ar  
    43    20    21 ar  
    44    20    59 1   
    45    21    22 1   
    46    22    23 1   
    47    22    60 1   
    48    23    24 2   
    49    23    25 1   
    50    25    26 ar  
    51    25    27 ar  
    52    26    30 ar  
    53    27    28 ar  
    54    27    61 1   
    55    28    29 ar  
    56    28    62 1   
    57    29    30 ar  
    58    29    63 1   
    59    30    31 1   
    60    31    32 ar  
    61    31    39 ar  
    62    32    33 ar  
    63    32    64 1   
    64    33    34 1   
    65    33    37 ar  
    66    34    35 2   
    67    34    65 1   
    68    35    36 1   
    69    35    66 1   
    70    36    37 1   
    71    36    67 1   
    72    37    38 ar  
    73    38    39 ar  
    74    39    68 1   
@<TRIPOS>SUBSTRUCTURE
     1 KFD         1 TEMP              0 ****  ****    0 ROOT
