@<TRIPOS>MOLECULE
KFE
   67    70     1     0     0
SMALL
No Charge or Current Charge


@<TRIPOS>ATOM
      1 N1          50.0890   -14.2980    -5.4550 ns         1 KFE      -0.495900
      2 C2          51.3020   -14.9040    -4.9040 c3         1 KFE       0.100000
      3 O2          53.7510   -19.8100    -7.2910 os         1 KFE      -0.461000
      4 C4          52.8470   -16.9600    -4.9280 c3         1 KFE      -0.071400
      5 O4          45.5680   -13.0590    -7.3360 oh         1 KFE      -0.639000
      6 C5          53.1200   -18.3870    -5.4610 c3         1 KFE      -0.077400
      7 C7          54.0750   -20.0350    -8.6750 c3         1 KFE       0.170600
      8 C6          53.4370   -18.4480    -6.9700 c3         1 KFE       0.161600
      9 O1          50.9640   -13.5410    -7.4370 o          1 KFE      -0.612100
     10 C1          50.0030   -13.6880    -6.6900 c          1 KFE       0.580100
     11 C3          51.5800   -16.2940    -5.5120 c3         1 KFE      -0.104400
     12 C8          54.3980   -21.5450    -8.9200 c6         1 KFE      -0.045000
     13 C9          53.1710   -22.4490    -8.5630 c6         1 KFE      -0.061400
     14 C10         53.4980   -23.9460    -8.8380 c6         1 KFE      -0.058700
     15 C11         53.8420   -24.1330   -10.3430 c6         1 KFE      -0.068067
     16 C12         55.0740   -23.2570   -10.7090 c6         1 KFE      -0.058700
     17 C13         56.2920   -23.6880    -9.8430 c6         1 KFE      -0.068067
     18 C14         55.9530   -23.5010    -8.3360 c6         1 KFE      -0.058700
     19 C15         54.7180   -24.3750    -7.9720 c6         1 KFE      -0.068067
     20 C16         55.6250   -22.0040    -8.0620 c6         1 KFE      -0.061400
     21 C17         54.7460   -21.7620   -10.4300 c6         1 KFE      -0.061400
     22 C18         48.5330   -13.1890    -6.9360 c5         1 KFE       0.094500
     23 N2          48.3540   -12.3430    -8.1800 n7         1 KFE      -0.852400
     24 C19         47.4150   -13.1070    -9.0590 c5         1 KFE       0.174500
     25 C20         46.6640   -12.2110   -10.0900 c3         1 KFE       0.176600
     26 O3          45.8840   -13.0070   -11.0010 oh         1 KFE      -0.669000
     27 C21         46.4940   -13.8880    -8.0610 c5         1 KFE       0.146300
     28 C22         47.6010   -14.4420    -7.1130 c5         1 KFE       0.094300
     29 O5          47.0630   -14.9170    -5.8690 oh         1 KFE      -0.663000
     30 H1          49.2190   -14.3970    -4.9400 hn         1 KFE       0.326500
     31 H2          51.1820   -14.9970    -3.8170 h1         1 KFE       0.055700
     32 H3          52.1540   -14.2380    -5.0950 h1         1 KFE       0.055700
     33 H4          53.7200   -16.3260    -5.1320 hc         1 KFE       0.042200
     34 H5          52.7480   -17.0120    -3.8360 hc         1 KFE       0.042200
     35 H6          45.7070   -13.3070    -6.3950 ho         1 KFE       0.451000
     36 H7          52.2540   -19.0250    -5.2480 hc         1 KFE       0.051700
     37 H8          53.9680   -18.8080    -4.9080 hc         1 KFE       0.051700
     38 H9          54.9460   -19.4330    -8.9660 h1         1 KFE       0.019700
     39 H10         53.2310   -19.7440    -9.3160 h1         1 KFE       0.019700
     40 H11         54.2880   -17.7910    -7.1930 h1         1 KFE       0.020200
     41 H12         52.5690   -18.1070    -7.5490 h1         1 KFE       0.020200
     42 H13         51.6870   -16.1910    -6.5990 hc         1 KFE       0.046200
     43 H14         50.7140   -16.9430    -5.3330 hc         1 KFE       0.046200
     44 H15         52.2920   -22.1450    -9.1490 hc         1 KFE       0.042700
     45 H16         52.8930   -22.3230    -7.5070 hc         1 KFE       0.042700
     46 H17         52.6280   -24.5660    -8.5800 hc         1 KFE       0.047367
     47 H18         54.0510   -25.1900   -10.5570 hc         1 KFE       0.038533
     48 H19         52.9800   -23.8550   -10.9660 hc         1 KFE       0.038533
     49 H20         55.3150   -23.3880   -11.7730 hc         1 KFE       0.047367
     50 H21         56.5500   -24.7370   -10.0460 hc         1 KFE       0.038533
     51 H22         57.1770   -23.0940   -10.1090 hc         1 KFE       0.038533
     52 H23         56.8130   -23.8070    -7.7250 hc         1 KFE       0.047367
     53 H24         54.4810   -24.2700    -6.9040 hc         1 KFE       0.038533
     54 H25         54.9440   -25.4380    -8.1360 hc         1 KFE       0.038533
     55 H26         56.5020   -21.3820    -8.2890 hc         1 KFE       0.042700
     56 H27         55.4200   -21.8640    -6.9910 hc         1 KFE       0.042700
     57 H28         55.6020   -21.1340   -10.7160 hc         1 KFE       0.042700
     58 H29         53.9060   -21.4420   -11.0630 hc         1 KFE       0.042700
     59 H30         48.2330   -12.6120    -6.0490 h1         1 KFE       0.099700
     60 H31         49.2620   -12.2310    -8.6570 hn         1 KFE       0.446000
     61 H33         47.9990   -13.8360    -9.6390 h1         1 KFE       0.042700
     62 H34         47.4070   -11.6260   -10.6480 h1         1 KFE       0.036700
     63 H35         46.0220   -11.5010    -9.5510 h1         1 KFE       0.036700
     64 H36         45.4240   -12.3810   -11.6040 ho         1 KFE       0.447000
     65 H37         45.9610   -14.7020    -8.5710 h1         1 KFE       0.056700
     66 H38         48.1490   -15.2500    -7.6210 h1         1 KFE       0.048700
     67 H39         46.6470   -15.7930    -6.0420 ho         1 KFE       0.456000
@<TRIPOS>BOND
     1     1     2 1   
     2     1    10 1   
     3     1    30 1   
     4     2    11 1   
     5     2    31 1   
     6     2    32 1   
     7     3     7 1   
     8     3     8 1   
     9     4     6 1   
    10     4    11 1   
    11     4    33 1   
    12     4    34 1   
    13     5    27 1   
    14     5    35 1   
    15     6     8 1   
    16     6    36 1   
    17     6    37 1   
    18     7    12 1   
    19     7    38 1   
    20     7    39 1   
    21     8    40 1   
    22     8    41 1   
    23     9    10 2   
    24    10    22 1   
    25    11    42 1   
    26    11    43 1   
    27    12    13 1   
    28    12    20 1   
    29    12    21 1   
    30    13    14 1   
    31    13    44 1   
    32    13    45 1   
    33    14    15 1   
    34    14    19 1   
    35    14    46 1   
    36    15    16 1   
    37    15    47 1   
    38    15    48 1   
    39    16    17 1   
    40    16    21 1   
    41    16    49 1   
    42    17    18 1   
    43    17    50 1   
    44    17    51 1   
    45    18    19 1   
    46    18    20 1   
    47    18    52 1   
    48    19    53 1   
    49    19    54 1   
    50    20    55 1   
    51    20    56 1   
    52    21    57 1   
    53    21    58 1   
    54    22    23 1   
    55    22    28 1   
    56    22    59 1   
    57    23    24 1   
    58    23    60 1   
    59    24    25 1   
    60    24    27 1   
    61    24    61 1   
    62    25    26 1   
    63    25    62 1   
    64    25    63 1   
    65    26    64 1   
    66    27    28 1   
    67    27    65 1   
    68    28    29 1   
    69    28    66 1   
    70    29    67 1   
@<TRIPOS>SUBSTRUCTURE
     1 KFE         1 TEMP              0 ****  ****    0 ROOT
