@<TRIPOS>MOLECULE
KFE
   67    70     1     0     0
SMALL
bcc


@<TRIPOS>ATOM
      1 N1          50.0130   -14.4910    -5.4160 ns         1 KFE      -0.562900
      2 C2          51.2430   -15.0220    -4.8700 c3         1 KFE       0.100000
      3 O2          53.8860   -19.7550    -7.1010 os         1 KFE      -0.414600
      4 C4          52.9350   -16.8950    -4.8570 c3         1 KFE      -0.071400
      5 O4          45.7190   -13.4640    -7.8060 oh         1 KFE      -0.576800
      6 C5          53.2990   -18.3130    -5.2910 c3         1 KFE      -0.077400
      7 C7          53.9780   -19.9800    -8.4850 c3         1 KFE       0.147400
      8 C6          53.5280   -18.4320    -6.7850 c3         1 KFE       0.138400
      9 O1          50.9270   -13.5750    -7.2690 o          1 KFE      -0.612100
     10 C1          49.9450   -13.8500    -6.5900 c          1 KFE       0.647100
     11 C3          51.6270   -16.3800    -5.4480 c3         1 KFE      -0.104400
     12 C8          54.2840   -21.4380    -8.7840 c6         1 KFE      -0.045000
     13 C9          53.2120   -22.3680    -8.2000 c6         1 KFE      -0.061400
     14 C10         53.5110   -23.8230    -8.5700 c6         1 KFE      -0.058700
     15 C11         53.5230   -23.9710   -10.0930 c6         1 KFE      -0.068067
     16 C12         54.6050   -23.0630   -10.6840 c6         1 KFE      -0.058700
     17 C13         55.9710   -23.4610   -10.1220 c6         1 KFE      -0.068067
     18 C14         55.9570   -23.3110    -8.5990 c6         1 KFE      -0.058700
     19 C15         54.8780   -24.2200    -8.0090 c6         1 KFE      -0.068067
     20 C16         55.6550   -21.8550    -8.2330 c6         1 KFE      -0.061400
     21 C17         54.3030   -21.6110   -10.3100 c6         1 KFE      -0.061400
     22 C18         48.5330   -13.4850    -7.0270 c5         1 KFE       0.094500
     23 N2          48.5100   -12.6270    -8.1950 n7         1 KFE      -0.797200
     24 C19         47.6460   -13.2220    -9.2210 c5         1 KFE       0.174500
     25 C20         46.9340   -12.1320    -9.9990 c3         1 KFE       0.153400
     26 O3          46.1420   -12.7350   -10.9960 oh         1 KFE      -0.606800
     27 C21         46.7450   -14.1760    -8.4490 c5         1 KFE       0.123100
     28 C22         47.7310   -14.7380    -7.4220 c5         1 KFE       0.071100
     29 O5          47.1260   -15.3130    -6.2950 oh         1 KFE      -0.600800
     30 H1          49.1500   -14.7430    -4.9600 hn         1 KFE       0.326500
     31 H2          51.1130   -15.0990    -3.7890 h1         1 KFE       0.055700
     32 H3          52.0440   -14.3020    -5.0410 h1         1 KFE       0.055700
     33 H4          53.7470   -16.2090    -5.1190 hc         1 KFE       0.042200
     34 H5          52.8660   -16.8760    -3.7650 hc         1 KFE       0.042200
     35 H6          45.4180   -13.9980    -7.0610 ho         1 KFE       0.412000
     36 H7          52.5020   -19.0010    -4.9900 hc         1 KFE       0.051700
     37 H8          54.2030   -18.6280    -4.7630 hc         1 KFE       0.051700
     38 H9          54.7630   -19.3430    -8.9270 h1         1 KFE       0.019700
     39 H10         53.0330   -19.7010    -8.9780 h1         1 KFE       0.019700
     40 H11         54.3140   -17.7290    -7.1010 h1         1 KFE       0.020200
     41 H12         52.6200   -18.1480    -7.3350 h1         1 KFE       0.020200
     42 H13         51.7080   -16.2870    -6.5330 hc         1 KFE       0.046200
     43 H14         50.8240   -17.0980    -5.2530 hc         1 KFE       0.046200
     44 H15         52.2250   -22.0780    -8.5800 hc         1 KFE       0.042700
     45 H16         53.1730   -22.2620    -7.1120 hc         1 KFE       0.042700
     46 H17         52.7360   -24.4690    -8.1450 hc         1 KFE       0.047367
     47 H18         53.7080   -25.0130   -10.3730 hc         1 KFE       0.038533
     48 H19         52.5440   -23.7030   -10.5050 hc         1 KFE       0.038533
     49 H20         54.6130   -23.1620   -11.7740 hc         1 KFE       0.047367
     50 H21         56.2080   -24.4930   -10.3990 hc         1 KFE       0.038533
     51 H22         56.7550   -22.8310   -10.5550 hc         1 KFE       0.038533
     52 H23         56.9340   -23.5900    -8.1930 hc         1 KFE       0.047367
     53 H24         54.8760   -24.1410    -6.9160 hc         1 KFE       0.038533
     54 H25         55.0930   -25.2670    -8.2480 hc         1 KFE       0.038533
     55 H26         56.4310   -21.1990    -8.6460 hc         1 KFE       0.042700
     56 H27         55.6780   -21.7310    -7.1460 hc         1 KFE       0.042700
     57 H28         55.0580   -20.9470   -10.7470 hc         1 KFE       0.042700
     58 H29         53.3370   -21.3110   -10.7320 hc         1 KFE       0.042700
     59 H30         48.0270   -13.0070    -6.1770 h1         1 KFE       0.099700
     60 H31         49.4480   -12.4900    -8.5470 hn         1 KFE       0.390800
     61 H33         48.2240   -13.8290    -9.9330 h1         1 KFE       0.042700
     62 H34         47.6940   -11.4700   -10.4370 h1         1 KFE       0.036700
     63 H35         46.3440   -11.5210    -9.3070 h1         1 KFE       0.036700
     64 H36         45.6860   -12.0410   -11.4790 ho         1 KFE       0.408000
     65 H37         46.3420   -14.9660    -9.0960 h1         1 KFE       0.056700
     66 H38         48.3930   -15.4540    -7.9290 h1         1 KFE       0.048700
     67 H39         46.9090   -16.2300    -6.4900 ho         1 KFE       0.417000
@<TRIPOS>BOND
     1     1     2 1   
     2     1    10 1   
     3     1    30 1   
     4     2    11 1   
     5     2    31 1   
     6     2    32 1   
     7     3     7 1   
     8     3     8 1   
     9     4     6 1   
    10     4    11 1   
    11     4    33 1   
    12     4    34 1   
    13     5    27 1   
    14     5    35 1   
    15     6     8 1   
    16     6    36 1   
    17     6    37 1   
    18     7    12 1   
    19     7    38 1   
    20     7    39 1   
    21     8    40 1   
    22     8    41 1   
    23     9    10 2   
    24    10    22 1   
    25    11    42 1   
    26    11    43 1   
    27    12    13 1   
    28    12    20 1   
    29    12    21 1   
    30    13    14 1   
    31    13    44 1   
    32    13    45 1   
    33    14    15 1   
    34    14    19 1   
    35    14    46 1   
    36    15    16 1   
    37    15    47 1   
    38    15    48 1   
    39    16    17 1   
    40    16    21 1   
    41    16    49 1   
    42    17    18 1   
    43    17    50 1   
    44    17    51 1   
    45    18    19 1   
    46    18    20 1   
    47    18    52 1   
    48    19    53 1   
    49    19    54 1   
    50    20    55 1   
    51    20    56 1   
    52    21    57 1   
    53    21    58 1   
    54    22    23 1   
    55    22    28 1   
    56    22    59 1   
    57    23    24 1   
    58    23    60 1   
    59    24    25 1   
    60    24    27 1   
    61    24    61 1   
    62    25    26 1   
    63    25    62 1   
    64    25    63 1   
    65    26    64 1   
    66    27    28 1   
    67    27    65 1   
    68    28    29 1   
    69    28    66 1   
    70    29    67 1   
@<TRIPOS>SUBSTRUCTURE
     1 KFE         1 TEMP              0 ****  ****    0 ROOT
