@<TRIPOS>MOLECULE
KFH
   17    17     1     0     0
SMALL
abcg2


@<TRIPOS>ATOM
      1 C4          16.4120     3.5920    13.6620 ca         1 KFH       0.125500
      2 C5          15.8640     2.5850    14.4290 ca         1 KFH       0.237500
      3 N           15.8170     0.4400    16.7760 n8         1 KFH      -1.114100
      4 C           15.3370     2.8510    15.6880 ca         1 KFH      -0.324500
      5 O           14.2320     1.9960    17.9040 o          1 KFH      -0.526000
      6 C1          15.3610     4.1590    16.1500 ca         1 KFH       0.237500
      7 C2          15.9110     5.1610    15.3640 ca         1 KFH       0.125500
      8 C3          16.4370     4.8930    14.1210 ca         1 KFH      -0.107000
      9 F           14.8740     4.5010    17.3320 f          1 KFH      -0.128500
     10 F1          15.9200     6.4050    15.8350 f          1 KFH      -0.147000
     11 F2          16.9130     3.2940    12.4670 f          1 KFH      -0.147000
     12 F3          15.8600     1.3440    13.9570 f          1 KFH      -0.128500
     13 O1          13.6200     0.9060    15.7220 o          1 KFH      -0.526000
     14 S           14.6100     1.4900    16.6020 sy         1 KFH       1.223600
     15 H1          16.4040     0.4860    17.5960 hn         1 KFH       0.519500
     16 H2          15.8450    -0.3950    16.2100 hn         1 KFH       0.519500
     17 H3          16.8630     5.6840    13.5180 ha         1 KFH       0.161000
@<TRIPOS>BOND
     1     1     2 ar  
     2     1     8 ar  
     3     1    11 1   
     4     2     4 ar  
     5     2    12 1   
     6     3    14 1   
     7     3    15 1   
     8     3    16 1   
     9     4     6 ar  
    10     4    14 1   
    11     5    14 2   
    12     6     7 ar  
    13     6     9 1   
    14     7     8 ar  
    15     7    10 1   
    16     8    17 1   
    17    13    14 2   
@<TRIPOS>SUBSTRUCTURE
     1 KFH         1 TEMP              0 ****  ****    0 ROOT
