@<TRIPOS>MOLECULE
KFH
   17    17     1     0     0
SMALL
No Charge or Current Charge


@<TRIPOS>ATOM
      1 C4          16.3470     3.6770    13.5290 ca         1 KFH       0.125500
      2 C5          15.8150     2.6060    14.2780 ca         1 KFH       0.237500
      3 N           16.0170     0.6070    16.9300 n8         1 KFH      -1.114100
      4 C           15.3530     2.8140    15.5980 ca         1 KFH      -0.324500
      5 O           14.1480     1.8510    17.8220 o          1 KFH      -0.526000
      6 C1          15.4480     4.1120    16.1550 ca         1 KFH       0.237500
      7 C2          15.9820     5.1750    15.3960 ca         1 KFH       0.125500
      8 C3          16.4290     4.9610    14.0850 ca         1 KFH      -0.107000
      9 F           15.0370     4.3710    17.4170 f          1 KFH      -0.128500
     10 F1          16.0690     6.4160    15.9300 f          1 KFH      -0.147000
     11 F2          16.7880     3.4730    12.2660 f          1 KFH      -0.147000
     12 F3          15.7720     1.3800    13.7070 f          1 KFH      -0.128500
     13 O1          13.9710     0.5110    15.6610 o          1 KFH      -0.526000
     14 S           14.6850     1.4430    16.5290 sy         1 KFH       1.223600
     15 H1          15.8500     0.5210    17.9300 hn         1 KFH       0.519500
     16 H2          15.7290    -0.3100    16.5940 hn         1 KFH       0.519500
     17 H3          16.8400     5.7830    13.5050 ha         1 KFH       0.161000
@<TRIPOS>BOND
     1     1     2 ar  
     2     1     8 ar  
     3     1    11 1   
     4     2     4 ar  
     5     2    12 1   
     6     3    14 1   
     7     3    15 1   
     8     3    16 1   
     9     4     6 ar  
    10     4    14 1   
    11     5    14 2   
    12     6     7 ar  
    13     6     9 1   
    14     7     8 ar  
    15     7    10 1   
    16     8    17 1   
    17    13    14 2   
@<TRIPOS>SUBSTRUCTURE
     1 KFH         1 TEMP              0 ****  ****    0 ROOT
