@<TRIPOS>MOLECULE
KFI
   46    50     1     0     0
SMALL
abcg2


@<TRIPOS>ATOM
      1 C11         93.0810   -14.2190     7.5770 ca         1 KFI      -0.071500
      2 C13         94.1660   -15.4350     5.8070 ca         1 KFI      -0.095000
      3 C15         95.3940   -13.7950     7.0690 ca         1 KFI      -0.071500
      4 C17         92.0890    -8.7920    13.7530 c          1 KFI       0.616700
      5 C18         91.8770    -7.7120    14.7700 ca         1 KFI      -0.068600
      6 C20         91.0040    -7.9710    15.8250 ca         1 KFI      -0.167000
      7 C21         90.8220    -6.9370    16.7210 ca         1 KFI       0.495000
      8 C23         92.1950    -5.4980    15.6250 ca         1 KFI       0.641900
      9 C24         92.4810    -6.4760    14.6520 ca         1 KFI      -0.227000
     10 C27         93.6910    -3.8550    14.6100 cx         1 KFI       0.153500
     11 C28         93.2480    -3.5800    13.2020 cx         1 KFI      -0.129400
     12 C1          93.8210    -9.6460    12.2070 cc         1 KFI       0.096600
     13 C2          95.2020    -9.4850    11.8940 cc         1 KFI      -0.208000
     14 C3          95.7810   -10.2050    10.9040 cd         1 KFI      -0.043000
     15 C4          93.0630   -10.5520    11.5020 cd         1 KFI      -0.133000
     16 C5          93.6910   -11.2820    10.4800 cd         1 KFI      -0.035000
     17 N6          95.0190   -11.0850    10.2160 na         1 KFI       0.281400
     18 N7          93.2270   -12.2020     9.6470 nc         1 KFI      -0.399300
     19 C8          94.2610   -13.5240     7.8370 ca         1 KFI      -0.110900
     20 C9          94.3030   -12.5250     8.9060 cc         1 KFI       0.593900
     21 N10         95.4140   -11.8750     9.2130 nd         1 KFI      -0.601100
     22 C12         93.0350   -15.1690     6.5670 ca         1 KFI      -0.123500
     23 C14         95.3440   -14.7440     6.0610 ca         1 KFI      -0.123500
     24 O19         91.1950    -9.5560    13.4540 o          1 KFI      -0.546100
     25 N22         91.3780    -5.7540    16.6500 nb         1 KFI      -0.739000
     26 CL25        89.7660    -7.1970    18.0770 cl         1 KFI      -0.163000
     27 N26         92.7200    -4.2560    15.5680 nu         1 KFI      -0.909100
     28 C29         93.6260    -2.4510    14.1070 cx         1 KFI      -0.129400
     29 H33         92.1970   -14.0160     8.1670 ha         1 KFI       0.131000
     30 H35         94.1290   -16.1760     5.0190 ha         1 KFI       0.112000
     31 H37         96.3160   -13.2630     7.2600 ha         1 KFI       0.131000
     32 H39         90.5110    -8.9240    15.9440 ha         1 KFI       0.160000
     33 H40         93.1320    -6.2370    13.8230 ha         1 KFI       0.131000
     34 H42         94.6810    -4.2880    14.7340 h1         1 KFI       0.078700
     35 H43         93.9230    -3.8520    12.4020 hc         1 KFI       0.082700
     36 H44         92.1980    -3.7160    12.9760 hc         1 KFI       0.082700
     37 H30         95.8110    -8.7780    12.4430 ha         1 KFI       0.130000
     38 H31         96.8200   -10.1230    10.6220 h4         1 KFI       0.163000
     39 H32         92.0180   -10.7250    11.6910 ha         1 KFI       0.180000
     40 H34         92.1130   -15.7020     6.3750 ha         1 KFI       0.114000
     41 H36         96.2290   -14.9460     5.4710 ha         1 KFI       0.114000
     42 H38         94.0240    -8.2120    13.6360 hn         1 KFI       0.326500
     43 H41         92.5570    -3.6630    16.3670 hn         1 KFI       0.513000
     44 H46         92.8330    -1.8210    14.4880 hc         1 KFI       0.082700
     45 H45         94.5640    -1.9400    13.9330 hc         1 KFI       0.082700
     46 N16         93.3420    -8.8320    13.2250 ns         1 KFI      -0.398100
@<TRIPOS>BOND
     1     1    19 ar  
     2     1    22 ar  
     3     1    29 1   
     4     2    22 ar  
     5     2    23 ar  
     6     2    30 1   
     7     3    19 ar  
     8     3    23 ar  
     9     3    31 1   
    10     4     5 1   
    11     4    24 2   
    12     4    46 1   
    13     5     6 ar  
    14     5     9 ar  
    15     6     7 ar  
    16     6    32 1   
    17     7    25 ar  
    18     7    26 1   
    19     8     9 ar  
    20     8    25 ar  
    21     8    27 1   
    22     9    33 1   
    23    10    11 1   
    24    10    27 1   
    25    10    28 1   
    26    10    34 1   
    27    11    28 1   
    28    11    35 1   
    29    11    36 1   
    30    12    13 1   
    31    12    15 2   
    32    12    46 1   
    33    13    14 2   
    34    13    37 1   
    35    14    17 1   
    36    14    38 1   
    37    15    16 1   
    38    15    39 1   
    39    16    17 1   
    40    16    18 2   
    41    17    21 1   
    42    18    20 1   
    43    19    20 1   
    44    20    21 2   
    45    22    40 1   
    46    23    41 1   
    47    27    43 1   
    48    28    44 1   
    49    28    45 1   
    50    42    46 1   
@<TRIPOS>SUBSTRUCTURE
     1 KFI         1 TEMP              0 ****  ****    0 ROOT
