@<TRIPOS>MOLECULE
KFI
   46    50     1     0     0
SMALL
No Charge or Current Charge


@<TRIPOS>ATOM
      1 C11         93.4230   -14.7890     8.0140 ca         1 KFI      -0.071500
      2 C13         94.4470   -16.0250     6.1830 ca         1 KFI      -0.095000
      3 C15         95.3430   -13.8600     6.8470 ca         1 KFI      -0.071500
      4 C17         91.9220    -8.8050    13.6040 c          1 KFI       0.616700
      5 C18         91.6760    -7.6990    14.6180 ca         1 KFI      -0.068600
      6 C20         90.6100    -7.7970    15.5390 ca         1 KFI      -0.167000
      7 C21         90.3930    -6.7680    16.4690 ca         1 KFI       0.495000
      8 C23         92.1560    -5.5660    15.6830 ca         1 KFI       0.641900
      9 C24         92.4690    -6.5290    14.7110 ca         1 KFI      -0.227000
     10 C27         94.0250    -3.9660    15.1650 cx         1 KFI       0.153500
     11 C28         93.8310    -3.3090    13.8220 cx         1 KFI      -0.129400
     12 C1          93.5020    -9.3870    11.7110 cc         1 KFI       0.096600
     13 C2          94.6460    -8.8650    10.9950 cc         1 KFI      -0.208000
     14 C3          95.2800    -9.5180     9.9390 cd         1 KFI      -0.043000
     15 C4          92.9850   -10.6190    11.3390 cd         1 KFI      -0.133000
     16 C5          93.6440   -11.2750    10.2580 cd         1 KFI      -0.035000
     17 N6          94.7220   -10.7490     9.6050 na         1 KFI       0.281400
     18 N7          93.3630   -12.4350     9.7140 nc         1 KFI      -0.399300
     19 C8          94.3610   -13.7380     7.8600 ca         1 KFI      -0.110900
     20 C9          94.3230   -12.5450     8.7290 cc         1 KFI       0.593900
     21 N10         95.1910   -11.5400     8.6100 nd         1 KFI      -0.601100
     22 C12         93.4680   -15.9210     7.1820 ca         1 KFI      -0.123500
     23 C14         95.3840   -14.9940     6.0160 ca         1 KFI      -0.123500
     24 O19         91.2090    -9.7990    13.5710 o          1 KFI      -0.546100
     25 N22         91.1530    -5.6590    16.5470 nb         1 KFI      -0.739000
     26 Cl25        89.0690    -6.8800    17.6190 cl         1 KFI      -0.163000
     27 N26         92.8490    -4.4040    15.8600 nu         1 KFI      -0.909100
     28 C29         94.2300    -2.4800    15.0180 cx         1 KFI      -0.129400
     29 H33         92.6510   -14.7370     8.7800 ha         1 KFI       0.131000
     30 H35         94.4800   -16.9020     5.5390 ha         1 KFI       0.112000
     31 H37         96.0820   -13.0750     6.6960 ha         1 KFI       0.131000
     32 H39         89.9490    -8.6590    15.5430 ha         1 KFI       0.160000
     33 H40         93.3120    -6.3520    14.0520 ha         1 KFI       0.131000
     34 H42         94.9090    -4.5930    15.3020 h1         1 KFI       0.078700
     35 H43         94.5830    -3.4940    13.0590 hc         1 KFI       0.082700
     36 H44         92.8170    -3.2030    13.4450 hc         1 KFI       0.082700
     37 H30         95.0330    -7.8990    11.3030 ha         1 KFI       0.130000
     38 H31         96.1350    -9.1650     9.3760 h4         1 KFI       0.163000
     39 H32         92.1350   -11.0880    11.8160 ha         1 KFI       0.180000
     40 H34         92.7400   -16.7190     7.3120 ha         1 KFI       0.114000
     41 H36         96.1450   -15.0720     5.2430 ha         1 KFI       0.114000
     42 H38         93.4650    -7.7280    12.9100 hn         1 KFI       0.326500
     43 H41         92.4570    -3.8630    16.6280 hn         1 KFI       0.513000
     44 H46         93.4840    -1.8120    15.4420 hc         1 KFI       0.082700
     45 H45         95.2510    -2.1080    15.0600 hc         1 KFI       0.082700
     46 N16         92.9900    -8.6030    12.7430 ns         1 KFI      -0.398100
@<TRIPOS>BOND
     1     1    19 ar  
     2     1    22 ar  
     3     1    29 1   
     4     2    22 ar  
     5     2    23 ar  
     6     2    30 1   
     7     3    19 ar  
     8     3    23 ar  
     9     3    31 1   
    10     4     5 1   
    11     4    24 2   
    12     4    46 1   
    13     5     6 ar  
    14     5     9 ar  
    15     6     7 ar  
    16     6    32 1   
    17     7    25 ar  
    18     7    26 1   
    19     8     9 ar  
    20     8    25 ar  
    21     8    27 1   
    22     9    33 1   
    23    10    11 1   
    24    10    27 1   
    25    10    28 1   
    26    10    34 1   
    27    11    28 1   
    28    11    35 1   
    29    11    36 1   
    30    12    13 1   
    31    12    15 2   
    32    12    46 1   
    33    13    14 2   
    34    13    37 1   
    35    14    17 1   
    36    14    38 1   
    37    15    16 1   
    38    15    39 1   
    39    16    17 1   
    40    16    18 2   
    41    17    21 1   
    42    18    20 1   
    43    19    20 1   
    44    20    21 2   
    45    22    40 1   
    46    23    41 1   
    47    27    43 1   
    48    28    44 1   
    49    28    45 1   
    50    42    46 1   
@<TRIPOS>SUBSTRUCTURE
     1 KFI         1 TEMP              0 ****  ****    0 ROOT
