@<TRIPOS>MOLECULE
KFJ
   28    28     1     0     0
SMALL
No Charge or Current Charge


@<TRIPOS>ATOM
      1 C02          3.3560    -0.0410    -0.6470 c3         1 KFJ      -0.002500
      2 C03          4.2340     0.9580     0.2100 c          1 KFJ       0.732000
      3 C06          1.8810    -0.0130    -0.1310 c3         1 KFJ       0.143300
      4 C08          0.8610    -0.5420    -1.1740 c3         1 KFJ      -0.093100
      5 C09         -0.5890    -0.3210    -0.7560 ca         1 KFJ       0.008700
      6 C10         -1.3770    -1.3960    -0.3070 ca         1 KFJ      -0.120500
      7 C11         -2.7150    -1.1930     0.0730 ca         1 KFJ      -0.045500
      8 C12         -3.2880     0.0990     0.0060 ca         1 KFJ      -0.199200
      9 C16         -2.4940     1.1770    -0.4490 ca         1 KFJ      -0.045500
     10 C17         -1.1570     0.9640    -0.8260 ca         1 KFJ      -0.120500
     11 N01          3.8950    -1.4520    -0.8520 n8         1 KFJ      -1.016200
     12 N13         -4.7150     0.3200     0.4100 no         1 KFJ       0.699200
     13 O04          4.2390     2.1390    -0.1150 o          1 KFJ      -0.719500
     14 O05          4.9580     0.5070     1.0910 o          1 KFJ      -0.719500
     15 O07          1.7620    -0.7820     1.0770 oh         1 KFJ      -0.644000
     16 O14         -5.1740     1.4680     0.3350 o          1 KFJ      -0.419000
     17 O15         -5.3720    -0.6540     0.8000 o          1 KFJ      -0.419000
     18 H021         3.3280     0.4100    -1.6490 h1         1 KFJ       0.049700
     19 H061         1.6240     1.0380     0.0690 h1         1 KFJ       0.098700
     20 H081         1.0360    -0.0300    -2.1280 hc         1 KFJ       0.049700
     21 H082         1.0450    -1.6060    -1.3680 hc         1 KFJ       0.049700
     22 H101        -0.9510    -2.3950    -0.2480 ha         1 KFJ       0.127000
     23 H111        -3.2980    -2.0450     0.4180 ha         1 KFJ       0.140500
     24 H161        -2.9040     2.1840    -0.5140 ha         1 KFJ       0.140500
     25 H171        -0.5600     1.8040    -1.1760 ha         1 KFJ       0.127000
     26 H1           4.1320    -1.8600     0.0610 hn         1 KFJ       0.387500
     27 H011         3.1640    -2.0600    -1.2380 hn         1 KFJ       0.387500
     28 H071         2.0610    -1.6890     0.8620 ho         1 KFJ       0.422000
@<TRIPOS>BOND
     1     1     2 1   
     2     1     3 1   
     3     1    11 1   
     4     1    18 1   
     5     2    13 1   
     6     2    14 1   
     7     3     4 1   
     8     3    15 1   
     9     3    19 1   
    10     4     5 1   
    11     4    20 1   
    12     4    21 1   
    13     5     6 ar  
    14     5    10 ar  
    15     6     7 ar  
    16     6    22 1   
    17     7     8 ar  
    18     7    23 1   
    19     8     9 ar  
    20     8    12 1   
    21     9    10 ar  
    22     9    24 1   
    23    10    25 1   
    24    11    26 1   
    25    11    27 1   
    26    12    16 1   
    27    12    17 1   
    28    15    28 1   
@<TRIPOS>SUBSTRUCTURE
     1 KFJ         1 TEMP              0 ****  ****    0 ROOT
