@<TRIPOS>MOLECULE
KFJ
   28    28     1     0     0
SMALL
abcg2


@<TRIPOS>ATOM
      1 C02          3.2940    -0.0230    -0.6500 c3         1 KFJ      -0.002500
      2 C03          4.1760     0.6510     0.4300 c          1 KFJ       0.732000
      3 C06          1.8280     0.0460    -0.1830 c3         1 KFJ       0.143300
      4 C08          0.8530    -0.4590    -1.2580 c3         1 KFJ      -0.093100
      5 C09         -0.5710    -0.2830    -0.8340 ca         1 KFJ       0.008700
      6 C10         -1.2430    -1.2900    -0.1440 ca         1 KFJ      -0.120500
      7 C11         -2.5490    -1.1200     0.2790 ca         1 KFJ      -0.045500
      8 C12         -3.1890     0.0830     0.0130 ca         1 KFJ      -0.199200
      9 C16         -2.5450     1.1080    -0.6670 ca         1 KFJ      -0.045500
     10 C17         -1.2410     0.9140    -1.0840 ca         1 KFJ      -0.120500
     11 N01          3.7810    -1.3520    -0.9600 n8         1 KFJ      -1.016200
     12 N13         -4.5590     0.2700     0.4500 no         1 KFJ       0.699200
     13 O04          3.9880     1.8730     0.5910 o          1 KFJ      -0.719500
     14 O05          4.9750    -0.0700     1.0560 o          1 KFJ      -0.719500
     15 O07          1.6350    -0.6310     1.0380 oh         1 KFJ      -0.644000
     16 O14         -5.0960     1.3270     0.2100 o          1 KFJ      -0.419000
     17 O15         -5.1020    -0.6390     1.0360 o          1 KFJ      -0.419000
     18 H021         3.3580     0.5930    -1.5550 h1         1 KFJ       0.049700
     19 H061         1.5960     1.0970     0.0140 h1         1 KFJ       0.098700
     20 H081         1.0390     0.0910    -2.1840 hc         1 KFJ       0.049700
     21 H082         1.0420    -1.5160    -1.4700 hc         1 KFJ       0.049700
     22 H101        -0.7460    -2.2300     0.0560 ha         1 KFJ       0.127000
     23 H111        -3.0510    -1.9170     0.8070 ha         1 KFJ       0.140500
     24 H161        -3.0440     2.0430    -0.8770 ha         1 KFJ       0.140500
     25 H171        -0.7360     1.7090    -1.6170 ha         1 KFJ       0.127000
     26 H1           4.0230    -1.8480    -0.1130 hn         1 KFJ       0.387500
     27 H011         3.1150    -1.9020    -1.4840 hn         1 KFJ       0.387500
     28 H071         1.9500    -1.5350     0.9320 ho         1 KFJ       0.422000
@<TRIPOS>BOND
     1     1     2 1   
     2     1     3 1   
     3     1    11 1   
     4     1    18 1   
     5     2    13 1   
     6     2    14 1   
     7     3     4 1   
     8     3    15 1   
     9     3    19 1   
    10     4     5 1   
    11     4    20 1   
    12     4    21 1   
    13     5     6 ar  
    14     5    10 ar  
    15     6     7 ar  
    16     6    22 1   
    17     7     8 ar  
    18     7    23 1   
    19     8     9 ar  
    20     8    12 1   
    21     9    10 ar  
    22     9    24 1   
    23    10    25 1   
    24    11    26 1   
    25    11    27 1   
    26    12    16 1   
    27    12    17 1   
    28    15    28 1   
@<TRIPOS>SUBSTRUCTURE
     1 KFJ         1 TEMP              0 ****  ****    0 ROOT
