@<TRIPOS>MOLECULE
KFK
   62    65     1     0     0
SMALL
No Charge or Current Charge


@<TRIPOS>ATOM
      1 FAY         -2.3440    -5.9340     1.1300 f          1 KFK      -0.160000
      2 CAN         -1.5620    -4.9160     0.7030 ca         1 KFK       0.141000
      3 CAM         -2.1260    -3.8300     0.0110 ca         1 KFK       0.112000
      4 FAX         -3.4610    -3.7940    -0.2240 f          1 KFK      -0.151000
      5 CAO         -0.1830    -4.9480     0.9620 ca         1 KFK      -0.138000
      6 CAP          0.6410    -3.8970     0.5200 ca         1 KFK      -0.082000
      7 CAQ          0.1040    -2.7950    -0.1900 cp         1 KFK      -0.047000
      8 CAI         -1.3020    -2.7730    -0.4220 ca         1 KFK       0.105100
      9 OAH         -1.8550    -1.6910    -1.0710 os         1 KFK      -0.357100
     10 CAG         -1.9860    -0.4470    -0.3630 c3         1 KFK       0.162600
     11 CAF         -2.3460     0.6480    -1.3840 c3         1 KFK       0.008900
     12 CAD         -2.4580     2.0160    -0.7520 cc         1 KFK      -0.211300
     13 CAE         -1.3800     2.8960    -0.5100 cc         1 KFK       0.268300
     14 CAL          0.0480     2.5710    -0.8540 c3         1 KFK      -0.126400
     15 NAA         -1.7320     4.0340     0.0500 nd         1 KFK      -0.521800
     16 NAB         -3.1040     3.8950     0.1810 na         1 KFK       0.128800
     17 CAK         -3.9160     4.9700     0.7740 c3         1 KFK       0.071900
     18 CAC         -3.5700     2.6640    -0.2990 cd         1 KFK      -0.126300
     19 CAJ         -5.0130     2.2200    -0.2830 c3         1 KFK      -0.032800
     20 CAR          1.0120    -1.7060    -0.6670 cp         1 KFK      -0.086000
     21 CAW          0.9660    -1.2500    -2.0200 ca         1 KFK      -0.048000
     22 CAV          1.8020    -0.2060    -2.4720 ca         1 KFK      -0.134000
     23 CAU          2.6820     0.3680    -1.5450 ca         1 KFK      -0.035200
     24 NBB          3.5830     1.4070    -1.6830 na         1 KFK       0.076600
     25 CBC          3.8050     2.1600    -2.9260 c3         1 KFK       0.081900
     26 NBA          4.2420     1.6770    -0.4800 nc         1 KFK      -0.492100
     27 CAZ          3.7270     0.7850     0.3870 cd         1 KFK       0.356900
     28 CAT          2.7420    -0.0580    -0.2590 ca         1 KFK      -0.232900
     29 CAS          1.9320    -1.0930     0.2270 ca         1 KFK      -0.025000
     30 CBD          4.1640     0.7400     1.8460 c3         1 KFK       0.159500
     31 NBE          3.4470     1.6670     2.7770 n3         1 KFK      -0.702600
     32 CBF          1.9800     1.4640     2.7960 c3         1 KFK       0.147600
     33 CBG          4.0330     1.6640     4.1360 c3         1 KFK       0.147600
     34 H1           0.2470    -5.7900     1.5000 ha         1 KFK       0.137000
     35 H2           1.7100    -3.9420     0.7160 ha         1 KFK       0.127000
     36 H3          -2.7700    -0.5180     0.4010 h1         1 KFK       0.039200
     37 H4          -1.0470    -0.1790     0.1360 h1         1 KFK       0.039200
     38 H5          -1.5870     0.6600    -2.1760 hc         1 KFK       0.058200
     39 H6          -3.2910     0.3820    -1.8720 hc         1 KFK       0.058200
     40 H7           0.1680     2.4360    -1.9350 hc         1 KFK       0.049700
     41 H8           0.7290     3.3690    -0.5360 hc         1 KFK       0.049700
     42 H9           0.3630     1.6480    -0.3570 hc         1 KFK       0.049700
     43 H10         -4.7500     5.2090     0.1050 h1         1 KFK       0.055033
     44 H11         -4.3090     4.6370     1.7420 h1         1 KFK       0.055033
     45 H12         -3.3020     5.8670     0.9210 h1         1 KFK       0.055033
     46 H13         -5.5660     2.6590    -1.1210 hc         1 KFK       0.051367
     47 H14         -5.0970     1.1300    -0.3600 hc         1 KFK       0.051367
     48 H15         -5.5130     2.5210     0.6450 hc         1 KFK       0.051367
     49 H16          0.2730    -1.7120    -2.7180 ha         1 KFK       0.126000
     50 H17          1.7550     0.1410    -3.5010 ha         1 KFK       0.123000
     51 H18          2.8720     2.6520    -3.2250 h1         1 KFK       0.054700
     52 H19          4.5800     2.9190    -2.7690 h1         1 KFK       0.054700
     53 H20          4.1260     1.4730    -3.7170 h1         1 KFK       0.054700
     54 H21          1.9880    -1.4050     1.2670 ha         1 KFK       0.120000
     55 H22          4.0510    -0.2950     2.1970 h1         1 KFK       0.043200
     56 H23          5.2400     0.9590     1.8710 h1         1 KFK       0.043200
     57 H25          1.7280     0.4550     3.1470 h1         1 KFK       0.032033
     58 H26          1.4970     2.1900     3.4630 h1         1 KFK       0.032033
     59 H27          1.5510     1.5990     1.7940 h1         1 KFK       0.032033
     60 H28          5.1040     1.9020     4.0980 h1         1 KFK       0.032033
     61 H29          3.5430     2.4140     4.7710 h1         1 KFK       0.032033
     62 H30          3.9150     0.6810     4.6110 h1         1 KFK       0.032033
@<TRIPOS>BOND
     1     1     2 1   
     2     2     3 ar  
     3     2     5 ar  
     4     3     4 1   
     5     3     8 ar  
     6     5     6 ar  
     7     5    34 1   
     8     6     7 ar  
     9     6    35 1   
    10     7     8 ar  
    11     7    20 1   
    12     8     9 1   
    13     9    10 1   
    14    10    11 1   
    15    10    36 1   
    16    10    37 1   
    17    11    12 1   
    18    11    38 1   
    19    11    39 1   
    20    12    13 1   
    21    12    18 2   
    22    13    14 1   
    23    13    15 2   
    24    14    40 1   
    25    14    41 1   
    26    14    42 1   
    27    15    16 1   
    28    16    17 1   
    29    16    18 1   
    30    17    43 1   
    31    17    44 1   
    32    17    45 1   
    33    18    19 1   
    34    19    46 1   
    35    19    47 1   
    36    19    48 1   
    37    20    21 ar  
    38    20    29 ar  
    39    21    22 ar  
    40    21    49 1   
    41    22    23 ar  
    42    22    50 1   
    43    23    24 1   
    44    23    28 ar  
    45    24    25 1   
    46    24    26 1   
    47    25    51 1   
    48    25    52 1   
    49    25    53 1   
    50    26    27 2   
    51    27    28 1   
    52    27    30 1   
    53    28    29 ar  
    54    29    54 1   
    55    30    31 1   
    56    30    55 1   
    57    30    56 1   
    58    31    32 1   
    59    31    33 1   
    60    32    57 1   
    61    32    58 1   
    62    32    59 1   
    63    33    60 1   
    64    33    61 1   
    65    33    62 1   
@<TRIPOS>SUBSTRUCTURE
     1 KFK         1 TEMP              0 ****  ****    0 ROOT
