@<TRIPOS>MOLECULE
KFK
   62    65     1     0     0
SMALL
bcc


@<TRIPOS>ATOM
      1 FAY         -2.5620    -5.8090     0.8900 f          1 KFK      -0.124900
      2 CAN         -1.6790    -4.8800     0.5100 ca         1 KFK       0.105900
      3 CAM         -2.1390    -3.7660    -0.1690 ca         1 KFK       0.076900
      4 FAX         -3.4450    -3.6360    -0.4130 f          1 KFK      -0.115900
      5 CAO         -0.3390    -5.0220     0.7990 ca         1 KFK      -0.156000
      6 CAP          0.5420    -4.0320     0.3860 ca         1 KFK      -0.100000
      7 CAQ          0.1050    -2.9100    -0.3110 cp         1 KFK      -0.047000
      8 CAI         -1.2590    -2.7790    -0.5910 ca         1 KFK       0.105100
      9 OAH         -1.7580    -1.7150    -1.2610 os         1 KFK      -0.333900
     10 CAG         -1.8750    -0.5150    -0.4900 c3         1 KFK       0.139400
     11 CAF         -2.2680     0.6220    -1.4160 c3         1 KFK       0.008900
     12 CAD         -2.2410     1.9210    -0.6810 cc         1 KFK      -0.276600
     13 CAE         -1.1450     2.8000    -0.5520 cc         1 KFK       0.333600
     14 CAL          0.1980     2.6580    -1.1820 c3         1 KFK      -0.126400
     15 NAA         -1.4500     3.8240     0.2220 nd         1 KFK      -0.521800
     16 NAB         -2.7140     3.6230     0.6040 na         1 KFK       0.107400
     17 CAK         -3.3930     4.6040     1.4130 c3         1 KFK       0.042600
     18 CAC         -3.2390     2.4940     0.0840 cd         1 KFK      -0.075600
     19 CAJ         -4.6310     2.0500     0.3560 c3         1 KFK      -0.032800
     20 CAR          1.0570    -1.8570    -0.7330 cp         1 KFK      -0.086000
     21 CAW          1.1990    -1.5360    -2.1050 ca         1 KFK      -0.066000
     22 CAV          2.0550    -0.5540    -2.5420 ca         1 KFK      -0.152000
     23 CAU          2.7750     0.1430    -1.5650 ca         1 KFK      -0.035200
     24 NBB          3.6370     1.1830    -1.6490 na         1 KFK       0.105900
     25 CBC          4.0080     1.9240    -2.8280 c3         1 KFK       0.052600
     26 NBA          4.0400     1.5850    -0.4390 nc         1 KFK      -0.492100
     27 CAZ          3.4710     0.8080     0.4510 cd         1 KFK       0.356900
     28 CAT          2.6480    -0.1530    -0.1990 ca         1 KFK      -0.232900
     29 CAS          1.7890    -1.1760     0.2180 ca         1 KFK      -0.043000
     30 CBD          3.6880     1.0020     1.9170 c3         1 KFK       0.159500
     31 NBE          2.9290     2.1240     2.4470 n3         1 KFK      -0.702600
     32 CBF          1.5020     1.8920     2.4000 c3         1 KFK       0.147600
     33 CBG          3.3570     2.4400     3.7930 c3         1 KFK       0.147600
     34 H1           0.0120    -5.8970     1.3270 ha         1 KFK       0.155000
     35 H2           1.5970    -4.1440     0.5990 ha         1 KFK       0.145000
     36 H3          -2.6250    -0.6470     0.2970 h1         1 KFK       0.039200
     37 H4          -0.9220    -0.2840    -0.0050 h1         1 KFK       0.039200
     38 H5          -1.5660     0.6540    -2.2540 hc         1 KFK       0.058200
     39 H6          -3.2560     0.4300    -1.8410 hc         1 KFK       0.058200
     40 H7           0.1590     2.8510    -2.2560 hc         1 KFK       0.049700
     41 H8           0.9170     3.3480    -0.7430 hc         1 KFK       0.049700
     42 H9           0.5820     1.6460    -1.0570 hc         1 KFK       0.049700
     43 H10         -3.9730     5.2950     0.8000 h1         1 KFK       0.055033
     44 H11         -4.0630     4.1140     2.1150 h1         1 KFK       0.055033
     45 H12         -2.6530     5.1670     1.9740 h1         1 KFK       0.055033
     46 H13         -5.3620     2.8150     0.0900 hc         1 KFK       0.051367
     47 H14         -4.8640     1.1580    -0.2230 hc         1 KFK       0.051367
     48 H15         -4.7820     1.8070     1.4090 hc         1 KFK       0.051367
     49 H16          0.6210    -2.0890    -2.8340 ha         1 KFK       0.144000
     50 H17          2.1480    -0.3250    -3.5960 ha         1 KFK       0.141000
     51 H18          3.3100     2.7390    -3.0210 h1         1 KFK       0.054700
     52 H19          5.0050     2.3340    -2.6930 h1         1 KFK       0.054700
     53 H20          4.0190     1.2600    -3.6890 h1         1 KFK       0.054700
     54 H21          1.6700    -1.4080     1.2700 ha         1 KFK       0.138000
     55 H22          3.4480     0.0610     2.4410 h1         1 KFK       0.043200
     56 H23          4.7480     1.1960     2.0990 h1         1 KFK       0.043200
     57 H25          1.1820     1.0390     3.0200 h1         1 KFK       0.032033
     58 H26          0.9700     2.7760     2.7530 h1         1 KFK       0.032033
     59 H27          1.1700     1.7030     1.3790 h1         1 KFK       0.032033
     60 H28          4.4180     2.6940     3.8020 h1         1 KFK       0.032033
     61 H29          2.8030     3.3040     4.1630 h1         1 KFK       0.032033
     62 H30          3.2030     1.6150     4.5060 h1         1 KFK       0.032033
@<TRIPOS>BOND
     1     1     2 1   
     2     2     3 ar  
     3     2     5 ar  
     4     3     4 1   
     5     3     8 ar  
     6     5     6 ar  
     7     5    34 1   
     8     6     7 ar  
     9     6    35 1   
    10     7     8 ar  
    11     7    20 1   
    12     8     9 1   
    13     9    10 1   
    14    10    11 1   
    15    10    36 1   
    16    10    37 1   
    17    11    12 1   
    18    11    38 1   
    19    11    39 1   
    20    12    13 1   
    21    12    18 2   
    22    13    14 1   
    23    13    15 2   
    24    14    40 1   
    25    14    41 1   
    26    14    42 1   
    27    15    16 1   
    28    16    17 1   
    29    16    18 1   
    30    17    43 1   
    31    17    44 1   
    32    17    45 1   
    33    18    19 1   
    34    19    46 1   
    35    19    47 1   
    36    19    48 1   
    37    20    21 ar  
    38    20    29 ar  
    39    21    22 ar  
    40    21    49 1   
    41    22    23 ar  
    42    22    50 1   
    43    23    24 1   
    44    23    28 ar  
    45    24    25 1   
    46    24    26 1   
    47    25    51 1   
    48    25    52 1   
    49    25    53 1   
    50    26    27 2   
    51    27    28 1   
    52    27    30 1   
    53    28    29 ar  
    54    29    54 1   
    55    30    31 1   
    56    30    55 1   
    57    30    56 1   
    58    31    32 1   
    59    31    33 1   
    60    32    57 1   
    61    32    58 1   
    62    32    59 1   
    63    33    60 1   
    64    33    61 1   
    65    33    62 1   
@<TRIPOS>SUBSTRUCTURE
     1 KFK         1 TEMP              0 ****  ****    0 ROOT
