@<TRIPOS>MOLECULE
KFL
   64    66     1     0     0
SMALL
No Charge or Current Charge


@<TRIPOS>ATOM
      1 C01        103.0710    80.4020    85.4060 c3         1 KFL      -0.091850
      2 C02        101.5920    80.0820    85.0250 c6         1 KFL       0.190700
      3 C03        100.8370    79.8760    86.3850 c3         1 KFL      -0.091850
      4 C04        101.5530    78.7420    84.2160 c6         1 KFL      -0.090400
      5 C05        101.6580    79.0040    82.7010 c6         1 KFL       0.133700
      6 C09        101.6090    75.5750    80.9020 c3         1 KFL      -0.165400
      7 C10        101.1690    75.6600    79.4140 c3         1 KFL      -0.065400
      8 C11         99.6450    75.7600    79.1510 c3         1 KFL      -0.073400
      9 C12         99.1120    77.2100    79.0530 c3         1 KFL      -0.083400
     10 C13         97.5860    77.2820    78.8070 c3         1 KFL      -0.057400
     11 C14         97.0400    78.7230    78.6170 c5         1 KFL       0.075300
     12 C16         96.1730    81.0340    79.3390 c5         1 KFL       0.029600
     13 C17         95.0350    80.3020    78.5510 c5         1 KFL       0.100700
     14 C19         93.8910    78.7140    79.8550 c          1 KFL       0.607000
     15 C22         95.5340    78.8460    78.1770 c5         1 KFL       0.099700
     16 C23        100.4710    79.8520    82.1700 c6         1 KFL      -0.090400
     17 C24         99.9730    80.9430    83.1840 c6         1 KFL       0.190700
     18 C25         99.6130    82.2300    82.3710 c3         1 KFL      -0.091850
     19 C26         98.6360    80.4800    83.8590 c3         1 KFL      -0.091850
     20 N06        101.8980    77.7860    81.9150 ns         1 KFL      -0.510900
     21 N18         94.0020    80.0280    79.5540 ns         1 KFL      -0.517900
     22 N21         94.7400    78.0030    79.0790 ns         1 KFL      -0.514900
     23 N27        101.0840    81.2260    84.1700 n3         1 KFL      -0.501100
     24 O08         99.9840    76.6170    82.3570 o          1 KFL      -0.609100
     25 O20         93.1330    78.2440    80.6800 o          1 KFL      -0.579000
     26 O28        100.7270    82.3840    85.0330 oh         1 KFL      -0.478300
     27 S15         97.1750    79.7190    80.1690 ss         1 KFL      -0.404000
     28 H012       103.1480    81.3240    85.9940 hc         1 KFL       0.040950
     29 H011       103.5190    79.5980    86.0030 hc         1 KFL       0.040950
     30 H013       103.6940    80.5320    84.5130 hc         1 KFL       0.040950
     31 H031       100.9470    80.7390    87.0520 hc         1 KFL       0.040950
     32 H032        99.7660    79.7040    86.2520 hc         1 KFL       0.040950
     33 H033       101.2340    79.0080    86.9240 hc         1 KFL       0.040950
     34 H041       100.6240    78.1980    84.4240 hc         1 KFL       0.060700
     35 H042       102.3630    78.0750    84.5400 hc         1 KFL       0.060700
     36 H051       102.5620    79.6150    82.5600 h1         1 KFL       0.050700
     37 H092       101.2700    74.6150    81.3090 hc         1 KFL       0.069200
     38 H091       102.7040    75.6180    80.9050 hc         1 KFL       0.069200
     39 H102       101.5450    74.7610    78.9080 hc         1 KFL       0.038700
     40 H101       101.6760    76.5060    78.9340 hc         1 KFL       0.038700
     41 H112        99.0990    75.2090    79.9270 hc         1 KFL       0.042700
     42 H111        99.4260    75.2530    78.2030 hc         1 KFL       0.042700
     43 H121        99.6290    77.7250    78.2330 hc         1 KFL       0.051200
     44 H122        99.3530    77.7590    79.9680 hc         1 KFL       0.051200
     45 H132        97.0770    76.7930    79.6460 hc         1 KFL       0.052200
     46 H131        97.3520    76.6920    77.9130 hc         1 KFL       0.052200
     47 H141        97.6630    79.2130    77.8560 h1         1 KFL       0.067700
     48 H161        96.8250    81.5800    78.6450 h1         1 KFL       0.078200
     49 H162        95.7880    81.7570    80.0710 h1         1 KFL       0.078200
     50 H171        94.6610    80.8770    77.6920 h1         1 KFL       0.072700
     51 H221        95.3760    78.5950    77.1190 h1         1 KFL       0.062700
     52 H232       100.7870    80.3150    81.2250 hc         1 KFL       0.060700
     53 H231        99.6310    79.2000    81.9020 hc         1 KFL       0.060700
     54 H252        99.1460    82.9980    82.9990 hc         1 KFL       0.040950
     55 H253       100.5060    82.6750    81.9150 hc         1 KFL       0.040950
     56 H251        98.9080    82.0090    81.5600 hc         1 KFL       0.040950
     57 H261        98.3240    81.1610    84.6580 hc         1 KFL       0.040950
     58 H262        97.8160    80.4420    83.1310 hc         1 KFL       0.040950
     59 H263        98.7120    79.4740    84.2830 hc         1 KFL       0.040950
     60 H061       102.7680    77.7380    81.3990 hn         1 KFL       0.309500
     61 H181        93.4330    80.7040    80.0500 hn         1 KFL       0.340500
     62 H211        94.7810    76.9970    79.1740 hn         1 KFL       0.338500
     63 H1         101.3740    83.0860    84.7870 ho         1 KFL       0.445000
     64 C07        101.0610    76.6990    81.7860 c          1 KFL       0.595100
@<TRIPOS>BOND
     1     1     2 1   
     2     1    28 1   
     3     1    29 1   
     4     1    30 1   
     5     2     3 1   
     6     2     4 1   
     7     2    23 1   
     8     3    31 1   
     9     3    32 1   
    10     3    33 1   
    11     4     5 1   
    12     4    34 1   
    13     4    35 1   
    14     5    16 1   
    15     5    20 1   
    16     5    36 1   
    17     6     7 1   
    18     6    37 1   
    19     6    38 1   
    20     6    64 1   
    21     7     8 1   
    22     7    39 1   
    23     7    40 1   
    24     8     9 1   
    25     8    41 1   
    26     8    42 1   
    27     9    10 1   
    28     9    43 1   
    29     9    44 1   
    30    10    11 1   
    31    10    45 1   
    32    10    46 1   
    33    11    15 1   
    34    11    27 1   
    35    11    47 1   
    36    12    13 1   
    37    12    27 1   
    38    12    48 1   
    39    12    49 1   
    40    13    15 1   
    41    13    21 1   
    42    13    50 1   
    43    14    21 1   
    44    14    22 1   
    45    14    25 2   
    46    15    22 1   
    47    15    51 1   
    48    16    17 1   
    49    16    52 1   
    50    16    53 1   
    51    17    18 1   
    52    17    19 1   
    53    17    23 1   
    54    18    54 1   
    55    18    55 1   
    56    18    56 1   
    57    19    57 1   
    58    19    58 1   
    59    19    59 1   
    60    20    60 1   
    61    20    64 1   
    62    21    61 1   
    63    22    62 1   
    64    23    26 1   
    65    24    64 2   
    66    26    63 1   
@<TRIPOS>SUBSTRUCTURE
     1 KFL         1 TEMP              0 ****  ****    0 ROOT
