@<TRIPOS>MOLECULE
KFL
   64    66     1     0     0
SMALL
abcg2


@<TRIPOS>ATOM
      1 C01        103.3620    80.7910    84.4750 c3         1 KFL      -0.091850
      2 C02        101.9060    80.3310    84.6270 c6         1 KFL       0.190700
      3 C03        101.5420    80.3300    86.1200 c3         1 KFL      -0.091850
      4 C04        101.7480    78.9010    84.0710 c6         1 KFL      -0.090400
      5 C05        101.4910    78.9180    82.5710 c6         1 KFL       0.133700
      6 C09        101.0120    75.3050    81.3580 c3         1 KFL      -0.165400
      7 C10        101.0250    75.4970    79.8340 c3         1 KFL      -0.065400
      8 C11         99.6690    75.8230    79.2030 c3         1 KFL      -0.073400
      9 C12         99.0730    77.1690    79.6120 c3         1 KFL      -0.083400
     10 C13         97.8320    77.5370    78.8020 c3         1 KFL      -0.057400
     11 C14         97.2120    78.8610    79.2240 c5         1 KFL       0.075300
     12 C16         95.6390    80.4030    80.5610 c5         1 KFL       0.029600
     13 C17         95.2080    80.3910    79.0850 c5         1 KFL       0.100700
     14 C19         93.8500    78.6690    78.2250 c          1 KFL       0.607000
     15 C22         96.0970    79.3740    78.2990 c5         1 KFL       0.099700
     16 C23        100.1590    79.6100    82.2540 c6         1 KFL      -0.090400
     17 C24         99.8060    80.7690    83.2230 c6         1 KFL       0.190700
     18 C25         99.1930    81.9070    82.4010 c3         1 KFL      -0.091850
     19 C26         98.7700    80.3190    84.2690 c3         1 KFL      -0.091850
     20 N06        101.5730    77.5930    81.9520 ns         1 KFL      -0.510900
     21 N18         93.8690    79.8750    78.8640 ns         1 KFL      -0.517900
     22 N21         95.1400    78.3500    77.9150 ns         1 KFL      -0.514900
     23 N27        101.0880    81.2570    83.7880 n3         1 KFL      -0.501100
     24 O08         99.9040    76.5580    83.0890 o          1 KFL      -0.609100
     25 O20         92.8520    77.9980    77.9660 o          1 KFL      -0.579000
     26 O28        100.8490    82.4530    84.5560 oh         1 KFL      -0.478300
     27 S15         96.4460    78.8050    80.8920 ss         1 KFL      -0.404000
     28 H012       103.4600    81.8380    84.7650 hc         1 KFL       0.040950
     29 H011       104.0180    80.1960    85.1130 hc         1 KFL       0.040950
     30 H013       103.6940    80.6890    83.4410 hc         1 KFL       0.040950
     31 H031       101.7410    81.2990    86.5750 hc         1 KFL       0.040950
     32 H032       100.4970    80.0770    86.2840 hc         1 KFL       0.040950
     33 H033       102.1550    79.5820    86.6270 hc         1 KFL       0.040950
     34 H041       100.9290    78.3860    84.5690 hc         1 KFL       0.060700
     35 H042       102.6590    78.3410    84.2890 hc         1 KFL       0.060700
     36 H051       102.2940    79.4850    82.1010 h1         1 KFL       0.050700
     37 H092       100.2420    74.5850    81.6350 hc         1 KFL       0.069200
     38 H091       101.9740    74.8860    81.6690 hc         1 KFL       0.069200
     39 H102       101.3960    74.5680    79.3940 hc         1 KFL       0.038700
     40 H101       101.7510    76.2680    79.5550 hc         1 KFL       0.038700
     41 H112        98.9590    75.0260    79.4470 hc         1 KFL       0.042700
     42 H111        99.7890    75.8060    78.1140 hc         1 KFL       0.042700
     43 H121        99.8230    77.9560    79.4920 hc         1 KFL       0.051200
     44 H122        98.8130    77.1510    80.6720 hc         1 KFL       0.051200
     45 H132        97.0840    76.7450    78.8790 hc         1 KFL       0.052200
     46 H131        98.1030    77.6140    77.7430 hc         1 KFL       0.052200
     47 H141        97.9880    79.6300    79.2590 h1         1 KFL       0.067700
     48 H161        96.3520    81.2090    80.7340 h1         1 KFL       0.078200
     49 H162        94.7910    80.5360    81.2310 h1         1 KFL       0.078200
     50 H171        95.2990    81.3990    78.6780 h1         1 KFL       0.072700
     51 H221        96.5490    79.8310    77.4160 h1         1 KFL       0.062700
     52 H232       100.2010    79.9860    81.2310 hc         1 KFL       0.060700
     53 H231        99.3560    78.8790    82.2920 hc         1 KFL       0.060700
     54 H252        98.8180    82.7070    83.0380 hc         1 KFL       0.040950
     55 H253        99.9330    82.3210    81.7130 hc         1 KFL       0.040950
     56 H251        98.3600    81.5160    81.8160 hc         1 KFL       0.040950
     57 H261        98.6050    81.1050    85.0080 hc         1 KFL       0.040950
     58 H262        97.8210    80.1160    83.7680 hc         1 KFL       0.040950
     59 H263        99.0700    79.4100    84.7840 hc         1 KFL       0.040950
     60 H061       102.2410    77.4910    81.2060 hn         1 KFL       0.309500
     61 H181        93.0720    80.1880    79.3930 hn         1 KFL       0.340500
     62 H211        95.3370    77.6590    77.2120 hn         1 KFL       0.338500
     63 H1         101.2330    83.1500    84.0120 ho         1 KFL       0.445000
     64 C07        100.7690    76.5440    82.2080 c          1 KFL       0.595100
@<TRIPOS>BOND
     1     1     2 1   
     2     1    28 1   
     3     1    29 1   
     4     1    30 1   
     5     2     3 1   
     6     2     4 1   
     7     2    23 1   
     8     3    31 1   
     9     3    32 1   
    10     3    33 1   
    11     4     5 1   
    12     4    34 1   
    13     4    35 1   
    14     5    16 1   
    15     5    20 1   
    16     5    36 1   
    17     6     7 1   
    18     6    37 1   
    19     6    38 1   
    20     6    64 1   
    21     7     8 1   
    22     7    39 1   
    23     7    40 1   
    24     8     9 1   
    25     8    41 1   
    26     8    42 1   
    27     9    10 1   
    28     9    43 1   
    29     9    44 1   
    30    10    11 1   
    31    10    45 1   
    32    10    46 1   
    33    11    15 1   
    34    11    27 1   
    35    11    47 1   
    36    12    13 1   
    37    12    27 1   
    38    12    48 1   
    39    12    49 1   
    40    13    15 1   
    41    13    21 1   
    42    13    50 1   
    43    14    21 1   
    44    14    22 1   
    45    14    25 2   
    46    15    22 1   
    47    15    51 1   
    48    16    17 1   
    49    16    52 1   
    50    16    53 1   
    51    17    18 1   
    52    17    19 1   
    53    17    23 1   
    54    18    54 1   
    55    18    55 1   
    56    18    56 1   
    57    19    57 1   
    58    19    58 1   
    59    19    59 1   
    60    20    60 1   
    61    20    64 1   
    62    21    61 1   
    63    22    62 1   
    64    23    26 1   
    65    24    64 2   
    66    26    63 1   
@<TRIPOS>SUBSTRUCTURE
     1 KFL         1 TEMP              0 ****  ****    0 ROOT
