@<TRIPOS>MOLECULE
KFN
   30    30     1     0     0
SMALL
No Charge or Current Charge


@<TRIPOS>ATOM
      1 C10          2.2690    -2.2700     0.3920 c          1 KFN       0.725200
      2 C2           2.6720     0.1680    -0.2420 c2         1 KFN      -0.424200
      3 C3           2.2120     1.5750    -0.5300 c6         1 KFN       0.189500
      4 C4           0.8260     1.8410     0.1220 c6         1 KFN       0.141300
      5 C5          -0.1170     0.6670    -0.2690 c6         1 KFN       0.137300
      6 C6          -1.5530     0.7800     0.3510 c3         1 KFN       0.156300
      7 C7          -2.5940    -0.1680    -0.3290 c3         1 KFN       0.134300
      8 C9          -4.0200    -0.0450     0.2760 c3         1 KFN       0.124600
      9 O4           0.3190     3.1250    -0.2960 oh         1 KFN      -0.675000
     10 O9           1.4290    -3.1110     0.6920 o          1 KFN      -0.695500
     11 O8           3.4650    -2.5360     0.3270 o          1 KFN      -0.695500
     12 O3           3.1890     2.4920    -0.0450 oh         1 KFN      -0.680000
     13 O5           0.4350    -0.6040     0.1760 os         1 KFN      -0.324100
     14 C20          1.8100    -0.8340     0.0900 ce         1 KFN       0.049900
     15 O6          -1.5100     0.5100     1.7710 oh         1 KFN      -0.729000
     16 O7          -2.6970     0.1180    -1.7360 oh         1 KFN      -0.625000
     17 O10         -4.9500    -0.8360    -0.4870 oh         1 KFN      -0.705000
     18 H2           3.7420    -0.0260    -0.3120 ha         1 KFN       0.207000
     19 H3           2.1120     1.6830    -1.6210 h1         1 KFN       0.021700
     20 H4           0.9520     1.8280     1.2160 h1         1 KFN       0.064700
     21 HA           4.0230     2.2810    -0.5180 ho         1 KFN       0.438000
     22 H5          -0.1940     0.6450    -1.3650 h1         1 KFN       0.058700
     23 HB           1.0940     3.7310    -0.2500 ho         1 KFN       0.447000
     24 H6          -1.9050     1.8070     0.1840 h1         1 KFN       0.067700
     25 H7          -2.2580    -1.2040    -0.1800 h1         1 KFN       0.120700
     26 HC          -0.8250    -0.1910     1.8890 ho         1 KFN       0.524000
     27 H91C        -4.0040    -0.3860     1.3200 h1         1 KFN       0.019200
     28 H92C        -4.3270     1.0100     0.2740 h1         1 KFN       0.019200
     29 HD          -3.5940    -0.2080    -1.9800 ho         1 KFN       0.420000
     30 H10         -5.8220    -0.7810    -0.0290 ho         1 KFN       0.487000
@<TRIPOS>BOND
     1     1    10 1   
     2     1    11 1   
     3     1    14 1   
     4     2     3 1   
     5     2    14 2   
     6     2    18 1   
     7     3     4 1   
     8     3    12 1   
     9     3    19 1   
    10     4     5 1   
    11     4     9 1   
    12     4    20 1   
    13     5     6 1   
    14     5    13 1   
    15     5    22 1   
    16     6     7 1   
    17     6    15 1   
    18     6    24 1   
    19     7     8 1   
    20     7    16 1   
    21     7    25 1   
    22     8    17 1   
    23     8    27 1   
    24     8    28 1   
    25     9    23 1   
    26    12    21 1   
    27    13    14 1   
    28    15    26 1   
    29    16    29 1   
    30    17    30 1   
@<TRIPOS>SUBSTRUCTURE
     1 KFN         1 TEMP              0 ****  ****    0 ROOT
