@<TRIPOS>MOLECULE
KFN
   30    30     1     0     0
SMALL
bcc


@<TRIPOS>ATOM
      1 C10          2.0670    -2.2950     0.1870 c          1 KFN       0.935800
      2 C2           2.5510     0.1200    -0.3640 c2         1 KFN      -0.374200
      3 C3           2.1630     1.5610    -0.5040 c6         1 KFN       0.166300
      4 C4           0.8170     1.7860     0.1660 c6         1 KFN       0.118100
      5 C5          -0.1240     0.6690    -0.2770 c6         1 KFN       0.114100
      6 C6          -1.5360     0.8090     0.2830 c3         1 KFN       0.133100
      7 C7          -2.4720    -0.3140    -0.2090 c3         1 KFN       0.111100
      8 C9          -3.9010    -0.0490     0.2400 c3         1 KFN       0.101400
      9 O4           0.2380     3.0150    -0.1960 oh         1 KFN      -0.612800
     10 O9           1.1450    -3.0660     0.4960 o          1 KFN      -0.800800
     11 O8           3.2710    -2.5700     0.0320 o          1 KFN      -0.800800
     12 O3           3.0960     2.4300     0.1120 oh         1 KFN      -0.617800
     13 O5           0.3640    -0.5880     0.1650 os         1 KFN      -0.300900
     14 C20          1.6820    -0.8340    -0.0260 ce         1 KFN       0.049900
     15 O6          -1.5290     0.8850     1.6900 oh         1 KFN      -0.606800
     16 O7          -2.3910    -0.4790    -1.6060 oh         1 KFN      -0.562800
     17 O10         -4.7020    -1.1500    -0.1210 oh         1 KFN      -0.582800
     18 H2           3.5810    -0.1610    -0.5370 ha         1 KFN       0.157000
     19 H3           2.0590     1.8210    -1.5680 h1         1 KFN       0.021700
     20 H4           0.9600     1.7170     1.2550 h1         1 KFN       0.064700
     21 HA           3.8850     2.4680    -0.4370 ho         1 KFN       0.399000
     22 H5          -0.1710     0.6720    -1.3740 h1         1 KFN       0.058700
     23 HB           0.8540     3.7160     0.0380 ho         1 KFN       0.408000
     24 H6          -1.9350     1.7660    -0.0700 h1         1 KFN       0.067700
     25 H7          -2.1390    -1.2640     0.2230 h1         1 KFN       0.120700
     26 HC          -1.1360     0.0750     2.0350 ho         1 KFN       0.425000
     27 H91C        -3.9140     0.1230     1.3210 h1         1 KFN       0.019200
     28 H92C        -4.2530     0.8800    -0.2340 h1         1 KFN       0.019200
     29 HD          -2.7580     0.3040    -2.0320 ho         1 KFN       0.381000
     30 H10         -5.5910    -0.9870     0.2040 ho         1 KFN       0.388000
@<TRIPOS>BOND
     1     1    10 1   
     2     1    11 1   
     3     1    14 1   
     4     2     3 1   
     5     2    14 2   
     6     2    18 1   
     7     3     4 1   
     8     3    12 1   
     9     3    19 1   
    10     4     5 1   
    11     4     9 1   
    12     4    20 1   
    13     5     6 1   
    14     5    13 1   
    15     5    22 1   
    16     6     7 1   
    17     6    15 1   
    18     6    24 1   
    19     7     8 1   
    20     7    16 1   
    21     7    25 1   
    22     8    17 1   
    23     8    27 1   
    24     8    28 1   
    25     9    23 1   
    26    12    21 1   
    27    13    14 1   
    28    15    26 1   
    29    16    29 1   
    30    17    30 1   
@<TRIPOS>SUBSTRUCTURE
     1 KFN         1 TEMP              0 ****  ****    0 ROOT
