@<TRIPOS>MOLECULE
KFR
   75    77     1     0     0
SMALL
No Charge or Current Charge


@<TRIPOS>ATOM
      1 C10         71.4560    13.8110   150.2530 c3         1 KFR       0.003800
      2 C15         68.8540    13.4690   150.0060 ca         1 KFR      -0.089800
      3 C17         67.3820    11.5670   150.1840 ca         1 KFR      -0.135000
      4 C20         73.5700    12.6860   149.3550 c          1 KFR       0.569100
      5 C28         65.4210    13.0310   145.7670 c3         1 KFR       0.139500
      6 C01         72.0870     8.1190   146.1160 c3         1 KFR      -0.086600
      7 C03         70.8430     8.5840   148.2840 c3         1 KFR      -0.086600
      8 C04         70.3390     9.9760   146.1630 c3         1 KFR      -0.084400
      9 C05         69.6230    11.1590   146.8750 c3         1 KFR       0.035700
     10 C09         72.1600    13.2200   149.0040 c3         1 KFR       0.050700
     11 C11         70.0430    14.2770   150.0000 cc         1 KFR      -0.162400
     12 C12         69.6240    15.5660   149.6800 cd         1 KFR      -0.136100
     13 C14         67.7990    14.2760   149.6870 ca         1 KFR      -0.051200
     14 C16         68.6830    12.1020   150.2750 ca         1 KFR      -0.074000
     15 C18         66.2890    12.4000   149.8460 ca         1 KFR      -0.100000
     16 C19         66.4930    13.7740   149.6010 ca         1 KFR      -0.115000
     17 C23         75.8140    13.3630   149.9270 c3         1 KFR       0.151900
     18 C27         66.2590    11.9370   145.0520 c3         1 KFR       0.105300
     19 C29         66.2440    14.3200   146.0420 c3         1 KFR       0.114600
     20 C31         65.8790    16.4860   147.1610 ca         1 KFR       0.106100
     21 C32         65.0550    17.2520   148.0020 ca         1 KFR      -0.128500
     22 C33         65.5000    18.4900   148.5010 ca         1 KFR      -0.140500
     23 C34         66.7760    18.9660   148.1560 ca         1 KFR       0.086100
     24 C35         67.6030    18.2090   147.3120 ca         1 KFR      -0.140500
     25 C36         67.1600    16.9700   146.8110 ca         1 KFR      -0.128500
     26 N08         71.3470    12.1630   148.3580 ns         1 KFR      -0.473900
     27 N13         68.2220    15.5760   149.4870 na         1 KFR      -0.220700
     28 N24         68.5320    11.6600   146.0100 ns         1 KFR      -0.488900
     29 N38         64.1730    13.3100   144.9810 n8         1 KFR      -0.973200
     30 O22         74.4570    13.7070   149.5890 os         1 KFR      -0.444100
     31 O26         66.8750    10.3050   146.7860 o          1 KFR      -0.613100
     32 O30         65.4010    15.2680   146.7240 os         1 KFR      -0.355100
     33 O37         67.2180    20.1630   148.6370 oh         1 KFR      -0.541100
     34 O39         65.3150    11.0540   144.4100 oh         1 KFR      -0.627000
     35 H1          71.4490    13.0550   151.0480 hc         1 KFR       0.058200
     36 H2          72.0530    14.6470   150.6370 hc         1 KFR       0.058200
     37 H3          67.2160    10.5090   150.3770 ha         1 KFR       0.122000
     38 H4          65.1140    12.6200   146.7420 h1         1 KFR       0.089700
     39 H5          72.8820     7.6120   146.6770 hc         1 KFR       0.035533
     40 H6          71.3580     7.3650   145.7950 hc         1 KFR       0.035533
     41 H7          72.5390     8.5630   145.2210 hc         1 KFR       0.035533
     42 H8          72.2060     9.9080   147.2660 hc         1 KFR       0.056700
     43 H9          70.4650     9.3520   148.9680 hc         1 KFR       0.035533
     44 H10         70.0220     7.8930   148.0580 hc         1 KFR       0.035533
     45 H11         71.6210     8.0250   148.8170 hc         1 KFR       0.035533
     46 H12         70.8030    10.3580   145.2450 hc         1 KFR       0.057700
     47 H13         69.5760     9.2550   145.8410 hc         1 KFR       0.057700
     48 H14         69.1800    10.8090   147.8140 h1         1 KFR       0.093700
     49 H15         72.3170    14.0370   148.2880 h1         1 KFR       0.111700
     50 H17         70.2200    16.4680   149.5650 h4         1 KFR       0.217000
     51 H18         69.5270    11.4710   150.5420 ha         1 KFR       0.107000
     52 H19         65.2880    11.9810   149.7800 ha         1 KFR       0.115000
     53 H20         65.6580    14.4240   149.3510 ha         1 KFR       0.115000
     54 H21         76.4090    14.2710   150.0870 h1         1 KFR       0.052367
     55 H22         75.8490    12.7660   150.8470 h1         1 KFR       0.052367
     56 H23         76.2840    12.7860   149.1200 h1         1 KFR       0.052367
     57 H24         66.8750    12.4200   144.2810 h1         1 KFR       0.069700
     58 H25         67.1150    14.0700   146.6620 h1         1 KFR       0.045700
     59 H26         66.6030    14.7350   145.0910 h1         1 KFR       0.045700
     60 H27         64.0700    16.8800   148.2720 ha         1 KFR       0.135500
     61 H28         64.8510    19.0690   149.1540 ha         1 KFR       0.124500
     62 H29         68.5900    18.5800   147.0450 ha         1 KFR       0.124500
     63 H30         67.8220    16.4030   146.1620 ha         1 KFR       0.135500
     64 H31         71.2790    11.2660   148.8230 hn         1 KFR       0.328500
     65 H32         68.7500    12.4210   145.3750 hn         1 KFR       0.331500
     66 H33         63.5550    13.8880   145.5650 hn         1 KFR       0.400500
     67 H34         64.4000    13.9530   144.2110 hn         1 KFR       0.400500
     68 H36         66.5150    20.5580   149.1960 ho         1 KFR       0.459000
     69 H37         64.4990    11.6230   144.4060 ho         1 KFR       0.466000
     70 H16         67.6470    16.3690   149.2220 hn         1 KFR       0.354000
     71 O21         73.8630    11.4970   149.4080 o          1 KFR      -0.485000
     72 C06         70.5730    12.3420   147.2310 c          1 KFR       0.589100
     73 C25         67.2250    11.2150   146.0430 c          1 KFR       0.564100
     74 C02         71.4120     9.2050   146.9850 c3         1 KFR      -0.063700
     75 O07         70.6190    13.3760   146.5740 o          1 KFR      -0.621100
@<TRIPOS>BOND
     1     1    10 1   
     2     1    11 1   
     3     1    35 1   
     4     1    36 1   
     5     2    11 1   
     6     2    13 ar  
     7     2    14 ar  
     8     3    14 ar  
     9     3    15 ar  
    10     3    37 1   
    11     4    10 1   
    12     4    30 1   
    13     4    71 2   
    14     5    18 1   
    15     5    19 1   
    16     5    29 1   
    17     5    38 1   
    18     6    39 1   
    19     6    40 1   
    20     6    41 1   
    21     6    74 1   
    22     7    43 1   
    23     7    44 1   
    24     7    45 1   
    25     7    74 1   
    26     8     9 1   
    27     8    46 1   
    28     8    47 1   
    29     8    74 1   
    30     9    28 1   
    31     9    48 1   
    32     9    72 1   
    33    10    26 1   
    34    10    49 1   
    35    11    12 2   
    36    12    27 1   
    37    12    50 1   
    38    13    16 ar  
    39    13    27 1   
    40    14    51 1   
    41    15    16 ar  
    42    15    52 1   
    43    16    53 1   
    44    17    30 1   
    45    17    54 1   
    46    17    55 1   
    47    17    56 1   
    48    18    34 1   
    49    18    57 1   
    50    18    73 1   
    51    19    32 1   
    52    19    58 1   
    53    19    59 1   
    54    20    21 ar  
    55    20    25 ar  
    56    20    32 1   
    57    21    22 ar  
    58    21    60 1   
    59    22    23 ar  
    60    22    61 1   
    61    23    24 ar  
    62    23    33 1   
    63    24    25 ar  
    64    24    62 1   
    65    25    63 1   
    66    26    64 1   
    67    26    72 1   
    68    27    70 1   
    69    28    65 1   
    70    28    73 1   
    71    29    66 1   
    72    29    67 1   
    73    31    73 2   
    74    33    68 1   
    75    34    69 1   
    76    42    74 1   
    77    72    75 2   
@<TRIPOS>SUBSTRUCTURE
     1 KFR         1 TEMP              0 ****  ****    0 ROOT
