@<TRIPOS>MOLECULE
KFR
   75    77     1     0     0
SMALL
abcg2


@<TRIPOS>ATOM
      1 C10         70.6390    13.6870   150.5070 c3         1 KFR       0.003800
      2 C15         68.0060    13.6520   150.2720 ca         1 KFR      -0.089800
      3 C17         66.2450    12.0400   149.9930 ca         1 KFR      -0.135000
      4 C20         72.7330    13.0500   149.2790 c          1 KFR       0.569100
      5 C28         65.3990    12.7530   146.2630 c3         1 KFR       0.139500
      6 C01         72.7750     9.2960   145.2300 c3         1 KFR      -0.086600
      7 C03         71.6470     8.6890   147.3940 c3         1 KFR      -0.086600
      8 C04         70.5100    10.2410   145.7320 c3         1 KFR      -0.084400
      9 C05         69.5590    10.9680   146.6940 c3         1 KFR       0.035700
     10 C09         71.2520    13.3740   149.1190 c3         1 KFR       0.050700
     11 C11         69.2800    14.3050   150.4380 cc         1 KFR      -0.162400
     12 C12         69.0170    15.6500   150.5070 cd         1 KFR      -0.136100
     13 C14         67.0180    14.6750   150.2470 ca         1 KFR      -0.051200
     14 C16         67.5930    12.3180   150.1480 ca         1 KFR      -0.074000
     15 C18         65.2870    13.0700   149.9610 ca         1 KFR      -0.100000
     16 C19         65.6610    14.3970   150.0920 ca         1 KFR      -0.115000
     17 C23         74.8620    13.9960   149.6900 c3         1 KFR       0.151900
     18 C27         65.8940    11.4110   145.6720 c3         1 KFR       0.105300
     19 C29         66.5450    13.7370   146.4920 c3         1 KFR       0.114600
     20 C31         66.8530    16.0070   147.1430 ca         1 KFR       0.106100
     21 C32         66.2870    17.2170   147.5420 ca         1 KFR      -0.128500
     22 C33         67.0940    18.3030   147.8520 ca         1 KFR      -0.140500
     23 C34         68.4810    18.1910   147.7590 ca         1 KFR       0.086100
     24 C35         69.0440    16.9890   147.3580 ca         1 KFR      -0.140500
     25 C36         68.2390    15.8960   147.0520 ca         1 KFR      -0.128500
     26 N08         70.5670    12.2770   148.4770 ns         1 KFR      -0.473900
     27 N13         67.6660    15.8740   150.4080 na         1 KFR      -0.220700
     28 N24         68.3120    11.2990   146.0250 ns         1 KFR      -0.488900
     29 N38         64.3500    13.2700   145.3840 n8         1 KFR      -0.973200
     30 O22         73.4500    14.1630   149.4320 os         1 KFR      -0.444100
     31 O26         66.9430     9.9960   147.2870 o          1 KFR      -0.613100
     32 O30         65.9830    14.9870   146.8760 os         1 KFR      -0.355100
     33 O37         69.3250    19.2300   148.0630 oh         1 KFR      -0.541100
     34 O39         64.8680    10.4360   145.7170 oh         1 KFR      -0.627000
     35 H1          70.6160    12.7560   151.0820 hc         1 KFR       0.058200
     36 H2          71.3200    14.3640   151.0240 hc         1 KFR       0.058200
     37 H3          65.9210    11.0140   149.8800 ha         1 KFR       0.122000
     38 H4          64.9470    12.5300   147.2320 h1         1 KFR       0.089700
     39 H5          73.7370     8.9840   145.6410 hc         1 KFR       0.035533
     40 H6          72.3380     8.4400   144.7070 hc         1 KFR       0.035533
     41 H7          72.9570    10.0830   144.4950 hc         1 KFR       0.035533
     42 H8          72.3170    10.6410   146.8220 hc         1 KFR       0.056700
     43 H9          71.0250     9.0190   148.2270 hc         1 KFR       0.035533
     44 H10         71.1690     7.8110   146.9480 hc         1 KFR       0.035533
     45 H11         72.6090     8.3760   147.8050 hc         1 KFR       0.035533
     46 H12         70.7060    10.9110   144.8900 hc         1 KFR       0.057700
     47 H13         69.9730     9.3740   145.3360 hc         1 KFR       0.057700
     48 H14         69.3010    10.3320   147.5360 h1         1 KFR       0.093700
     49 H15         71.1570    14.2490   148.4800 h1         1 KFR       0.111700
     50 H17         69.7030    16.4750   150.6160 h4         1 KFR       0.217000
     51 H18         68.3140    11.5110   150.1660 ha         1 KFR       0.107000
     52 H19         64.2430    12.8200   149.8250 ha         1 KFR       0.115000
     53 H20         64.9290    15.1940   150.0610 ha         1 KFR       0.115000
     54 H21         75.2570    15.0010   149.7970 h1         1 KFR       0.052367
     55 H22         75.0080    13.4260   150.6060 h1         1 KFR       0.052367
     56 H23         75.3350    13.4840   148.8550 h1         1 KFR       0.052367
     57 H24         66.1590    11.5790   144.6230 h1         1 KFR       0.069700
     58 H25         67.2100    13.3820   147.2830 h1         1 KFR       0.045700
     59 H26         67.1280    13.8700   145.5730 h1         1 KFR       0.045700
     60 H27         65.2100    17.2950   147.6200 ha         1 KFR       0.135500
     61 H28         66.6470    19.2380   148.1680 ha         1 KFR       0.124500
     62 H29         70.1220    16.8980   147.3010 ha         1 KFR       0.124500
     63 H30         68.7130    14.9690   146.7730 ha         1 KFR       0.135500
     64 H31         70.4600    11.4280   149.0090 hn         1 KFR       0.328500
     65 H32         68.3670    11.9710   145.2740 hn         1 KFR       0.331500
     66 H33         63.9790    14.1280   145.7800 hn         1 KFR       0.400500
     67 H34         64.7540    13.5270   144.4870 hn         1 KFR       0.400500
     68 H36         68.8070    20.0030   148.3220 ho         1 KFR       0.459000
     69 H37         65.0700     9.8900   146.4960 ho         1 KFR       0.466000
     70 H16         67.2410    16.7820   150.3080 hn         1 KFR       0.354000
     71 O21         73.1930    11.9320   149.3170 o          1 KFR      -0.485000
     72 C06         70.1920    12.2740   147.1880 c          1 KFR       0.589100
     73 C25         67.1130    10.8400   146.4060 c          1 KFR       0.564100
     74 C02         71.8400     9.7820   146.3400 c3         1 KFR      -0.063700
     75 O07         70.3260    13.2330   146.4310 o          1 KFR      -0.621100
@<TRIPOS>BOND
     1     1    10 1   
     2     1    11 1   
     3     1    35 1   
     4     1    36 1   
     5     2    11 1   
     6     2    13 ar  
     7     2    14 ar  
     8     3    14 ar  
     9     3    15 ar  
    10     3    37 1   
    11     4    10 1   
    12     4    30 1   
    13     4    71 2   
    14     5    18 1   
    15     5    19 1   
    16     5    29 1   
    17     5    38 1   
    18     6    39 1   
    19     6    40 1   
    20     6    41 1   
    21     6    74 1   
    22     7    43 1   
    23     7    44 1   
    24     7    45 1   
    25     7    74 1   
    26     8     9 1   
    27     8    46 1   
    28     8    47 1   
    29     8    74 1   
    30     9    28 1   
    31     9    48 1   
    32     9    72 1   
    33    10    26 1   
    34    10    49 1   
    35    11    12 2   
    36    12    27 1   
    37    12    50 1   
    38    13    16 ar  
    39    13    27 1   
    40    14    51 1   
    41    15    16 ar  
    42    15    52 1   
    43    16    53 1   
    44    17    30 1   
    45    17    54 1   
    46    17    55 1   
    47    17    56 1   
    48    18    34 1   
    49    18    57 1   
    50    18    73 1   
    51    19    32 1   
    52    19    58 1   
    53    19    59 1   
    54    20    21 ar  
    55    20    25 ar  
    56    20    32 1   
    57    21    22 ar  
    58    21    60 1   
    59    22    23 ar  
    60    22    61 1   
    61    23    24 ar  
    62    23    33 1   
    63    24    25 ar  
    64    24    62 1   
    65    25    63 1   
    66    26    64 1   
    67    26    72 1   
    68    27    70 1   
    69    28    65 1   
    70    28    73 1   
    71    29    66 1   
    72    29    67 1   
    73    31    73 2   
    74    33    68 1   
    75    34    69 1   
    76    42    74 1   
    77    72    75 2   
@<TRIPOS>SUBSTRUCTURE
     1 KFR         1 TEMP              0 ****  ****    0 ROOT
