@<TRIPOS>MOLECULE
KFS
   32    33     1     0     0
SMALL
bcc


@<TRIPOS>ATOM
      1 C10         18.9320    -8.9450     0.6660 ca         1 KFS      -0.136500
      2 C13         20.8230    -5.6630     0.3950 c3         1 KFS      -0.193100
      3 C17         21.4980    -7.9890     1.1040 ca         1 KFS      -0.125000
      4 C20         18.6030   -11.2100     4.8420 ca         1 KFS      -0.047000
      5 C03         18.3560   -12.5750     4.9710 ca         1 KFS      -0.089000
      6 C04         18.5420   -13.4430     3.8810 ca         1 KFS      -0.008300
      7 C05         18.2790   -14.9110     4.0100 c3         1 KFS      -0.050800
      8 C06         18.9750   -12.9010     2.6850 ca         1 KFS      -0.188000
      9 C07         19.2220   -11.5340     2.5580 ca         1 KFS       0.185100
     10 C09         19.9220    -9.7890     1.1370 ca         1 KFS       0.029100
     11 C11         19.2410    -7.6150     0.4130 ca         1 KFS      -0.125000
     12 C12         20.5230    -7.1130     0.6270 ca         1 KFS       0.008700
     13 C14         20.7050    -4.8480     1.7150 c          1 KFS       0.936600
     14 C18         21.2080    -9.3210     1.3580 ca         1 KFS      -0.136500
     15 C19         19.0360   -10.6790     3.6420 ca         1 KFS      -0.207000
     16 N01         17.5490   -13.5090     7.2330 n1         1 KFS      -0.410800
     17 O08         19.6400   -11.1240     1.3440 os         1 KFS      -0.250200
     18 O15         19.8430    -3.9510     1.7440 o          1 KFS      -0.824800
     19 O16         21.4890    -5.1780     2.6240 o          1 KFS      -0.824800
     20 H101        17.9320    -9.3210     0.4890 ha         1 KFS       0.126500
     21 H132        21.8430    -5.5580     0.0150 hc         1 KFS       0.034700
     22 H131        20.1480    -5.2630    -0.3630 hc         1 KFS       0.034700
     23 H171        22.5050    -7.6280     1.2710 ha         1 KFS       0.141000
     24 H201        18.4550   -10.5540     5.6900 ha         1 KFS       0.141000
     25 H053        18.9080   -15.3590     4.7810 hc         1 KFS       0.045033
     26 H051        17.2420   -15.1040     4.2870 hc         1 KFS       0.045033
     27 H052        18.4780   -15.4290     3.0740 hc         1 KFS       0.045033
     28 H061        19.1280   -13.5460     1.8280 ha         1 KFS       0.143000
     29 H111        18.4660    -6.9570     0.0390 ha         1 KFS       0.141000
     30 H181        21.9770    -9.9920     1.7200 ha         1 KFS       0.126500
     31 H191        19.2210    -9.6170     3.5640 ha         1 KFS       0.173000
     32 C02         17.9100   -13.0880     6.2210 cg         1 KFS       0.260800
@<TRIPOS>BOND
     1     1    10 ar  
     2     1    11 ar  
     3     1    20 1   
     4     2    12 1   
     5     2    13 1   
     6     2    21 1   
     7     2    22 1   
     8     3    12 ar  
     9     3    14 ar  
    10     3    23 1   
    11     4     5 ar  
    12     4    15 ar  
    13     4    24 1   
    14     5     6 ar  
    15     5    32 1   
    16     6     7 1   
    17     6     8 ar  
    18     7    25 1   
    19     7    26 1   
    20     7    27 1   
    21     8     9 ar  
    22     8    28 1   
    23     9    15 ar  
    24     9    17 1   
    25    10    14 ar  
    26    10    17 1   
    27    11    12 ar  
    28    11    29 1   
    29    13    18 1   
    30    13    19 1   
    31    14    30 1   
    32    15    31 1   
    33    16    32 3   
@<TRIPOS>SUBSTRUCTURE
     1 KFS         1 TEMP              0 ****  ****    0 ROOT
