@<TRIPOS>MOLECULE
KFS
   32    33     1     0     0
SMALL
No Charge or Current Charge


@<TRIPOS>ATOM
      1 C10         18.7210    -8.6250     0.3030 ca         1 KFS      -0.118500
      2 C13         21.3520    -5.8260     0.3530 c3         1 KFS      -0.193100
      3 C17         21.2090    -8.0970     1.4960 ca         1 KFS      -0.107000
      4 C20         18.4960   -11.3150     5.0490 ca         1 KFS      -0.029000
      5 C03         18.5620   -12.7220     5.1000 ca         1 KFS      -0.089000
      6 C04         18.6490   -13.4680     3.8980 ca         1 KFS      -0.008300
      7 C05         18.7160   -14.9940     3.9050 c3         1 KFS      -0.050800
      8 C06         18.6730   -12.7850     2.6650 ca         1 KFS      -0.170000
      9 C07         18.6200   -11.3840     2.6210 ca         1 KFS       0.185100
     10 C09         19.2950    -9.5700     1.1680 ca         1 KFS       0.029100
     11 C11         19.3840    -7.4120     0.0430 ca         1 KFS      -0.107000
     12 C12         20.6310    -7.1400     0.6390 ca         1 KFS       0.008700
     13 C14         20.9210    -4.7710     1.3810 c          1 KFS       0.726000
     14 C18         20.5480    -9.3100     1.7580 ca         1 KFS      -0.118500
     15 C19         18.5210   -10.6480     3.8130 ca         1 KFS      -0.189000
     16 N01         18.5100   -13.8860     7.4320 n1         1 KFS      -0.500000
     17 O08         18.6320   -10.7550     1.3950 os         1 KFS      -0.250200
     18 O15         19.9180    -4.1130     1.1450 o          1 KFS      -0.719500
     19 O16         21.5320    -4.7160     2.4390 o          1 KFS      -0.719500
     20 H101        17.7600    -8.8290    -0.1620 ha         1 KFS       0.108500
     21 H132        22.4270    -6.0210     0.4410 hc         1 KFS       0.034700
     22 H131        21.0590    -5.5100    -0.6560 hc         1 KFS       0.034700
     23 H171        22.1740    -7.9010     1.9600 ha         1 KFS       0.123000
     24 H201        18.4220   -10.7360     5.9690 ha         1 KFS       0.123000
     25 H053        19.5950   -15.3490     4.4550 hc         1 KFS       0.045033
     26 H051        17.8250   -15.4270     4.3750 hc         1 KFS       0.045033
     27 H052        18.7800   -15.4040     2.8900 hc         1 KFS       0.045033
     28 H061        18.7370   -13.3400     1.7330 ha         1 KFS       0.125000
     29 H111        18.9270    -6.6830    -0.6230 ha         1 KFS       0.123000
     30 H181        21.0120   -10.0440     2.4130 ha         1 KFS       0.108500
     31 H191        18.4590    -9.5630     3.7840 ha         1 KFS       0.155000
     32 C02         18.5340   -13.3700     6.3850 cg         1 KFS       0.350000
@<TRIPOS>BOND
     1     1    10 ar  
     2     1    11 ar  
     3     1    20 1   
     4     2    12 1   
     5     2    13 1   
     6     2    21 1   
     7     2    22 1   
     8     3    12 ar  
     9     3    14 ar  
    10     3    23 1   
    11     4     5 ar  
    12     4    15 ar  
    13     4    24 1   
    14     5     6 ar  
    15     5    32 1   
    16     6     7 1   
    17     6     8 ar  
    18     7    25 1   
    19     7    26 1   
    20     7    27 1   
    21     8     9 ar  
    22     8    28 1   
    23     9    15 ar  
    24     9    17 1   
    25    10    14 ar  
    26    10    17 1   
    27    11    12 ar  
    28    11    29 1   
    29    13    18 1   
    30    13    19 1   
    31    14    30 1   
    32    15    31 1   
    33    16    32 3   
@<TRIPOS>SUBSTRUCTURE
     1 KFS         1 TEMP              0 ****  ****    0 ROOT
