@<TRIPOS>MOLECULE
KFT
   39    39     1     0     0
SMALL
abcg2


@<TRIPOS>ATOM
      1 C1          52.0640   -17.9450    -5.7570 c3         1 KFT      -0.089100
      2 C2          52.9000   -17.1380    -4.7710 c3         1 KFT      -0.072400
      3 C3          52.8730   -15.6330    -5.0180 c3         1 KFT      -0.071400
      4 C4          51.4870   -15.0080    -4.9100 c3         1 KFT      -0.100400
      5 O4          47.2810   -13.3240    -3.9070 oh         1 KFT      -0.661000
      6 C5          51.5430   -13.4890    -5.0210 c3         1 KFT       0.097000
      7 C6          49.5060   -12.6730    -6.1200 c          1 KFT       0.577100
      8 C7          48.0960   -12.1570    -5.8630 c5         1 KFT       0.096500
      9 C8          46.1960   -12.4620    -7.2620 c5         1 KFT       0.174500
     10 C9          45.1660   -11.6120    -7.9770 c3         1 KFT       0.177600
     11 N1          50.2370   -12.8650    -5.0140 ns         1 KFT      -0.494900
     12 O1          49.9150   -12.9010    -7.2510 o          1 KFT      -0.612100
     13 N2          47.4340   -11.7030    -7.0700 n7         1 KFT      -0.853400
     14 O2          43.9980   -12.3800    -8.1580 oh         1 KFT      -0.668000
     15 C10         45.8260   -12.9170    -5.8580 c5         1 KFT       0.147300
     16 O3          45.2650   -11.8540    -5.1310 oh         1 KFT      -0.638000
     17 C11         47.2060   -13.2850    -5.3070 c5         1 KFT       0.096300
     18 H1          52.2040   -19.0160    -5.6050 hc         1 KFT       0.032033
     19 H2          50.9980   -17.7420    -5.6510 hc         1 KFT       0.032033
     20 H3          52.3420   -17.7200    -6.7880 hc         1 KFT       0.032033
     21 H4          52.5590   -17.3420    -3.7520 hc         1 KFT       0.037200
     22 H5          53.9380   -17.4790    -4.8160 hc         1 KFT       0.037200
     23 H6          53.5440   -15.1460    -4.3020 hc         1 KFT       0.039700
     24 H7          53.2840   -15.4210    -6.0110 hc         1 KFT       0.039700
     25 H8          50.8340   -15.3990    -5.6940 hc         1 KFT       0.044200
     26 H9          51.0280   -15.2830    -3.9540 hc         1 KFT       0.044200
     27 H11         52.1150   -13.0730    -4.1900 h1         1 KFT       0.057700
     28 H12         52.0590   -13.1970    -5.9370 h1         1 KFT       0.057700
     29 H13         48.1520   -11.3550    -5.1150 h1         1 KFT       0.098700
     30 H14         46.3630   -13.3700    -7.8600 h1         1 KFT       0.042700
     31 H15         45.5920   -11.2960    -8.9400 h1         1 KFT       0.036700
     32 H16         44.9780   -10.7000    -7.4000 h1         1 KFT       0.036700
     33 H17         49.7950   -12.7180    -4.1200 hn         1 KFT       0.323500
     34 H18         48.0470   -11.8000    -7.8690 hn         1 KFT       0.446000
     35 H20         43.3680   -11.8570    -8.6600 ho         1 KFT       0.447000
     36 H21         45.1570   -13.7880    -5.8760 h1         1 KFT       0.056700
     37 H22         45.4180   -12.0300    -4.1950 ho         1 KFT       0.451000
     38 H23         47.5050   -14.2440    -5.7500 h1         1 KFT       0.049700
     39 H10         46.9870   -14.1900    -3.6050 ho         1 KFT       0.455000
@<TRIPOS>BOND
     1     1     2 1   
     2     1    18 1   
     3     1    19 1   
     4     1    20 1   
     5     2     3 1   
     6     2    21 1   
     7     2    22 1   
     8     3     4 1   
     9     3    23 1   
    10     3    24 1   
    11     4     6 1   
    12     4    25 1   
    13     4    26 1   
    14     5    17 1   
    15     5    39 1   
    16     6    11 1   
    17     6    27 1   
    18     6    28 1   
    19     7     8 1   
    20     7    11 1   
    21     7    12 2   
    22     8    13 1   
    23     8    17 1   
    24     8    29 1   
    25     9    10 1   
    26     9    13 1   
    27     9    15 1   
    28     9    30 1   
    29    10    14 1   
    30    10    31 1   
    31    10    32 1   
    32    11    33 1   
    33    13    34 1   
    34    14    35 1   
    35    15    16 1   
    36    15    17 1   
    37    15    36 1   
    38    16    37 1   
    39    17    38 1   
@<TRIPOS>SUBSTRUCTURE
     1 KFT         1 TEMP              0 ****  ****    0 ROOT
