@<TRIPOS>MOLECULE
KFT
   39    39     1     0     0
SMALL
No Charge or Current Charge


@<TRIPOS>ATOM
      1 C1          52.3470   -17.9210    -6.0980 c3         1 KFT      -0.089100
      2 C2          52.8040   -17.2830    -4.7690 c3         1 KFT      -0.072400
      3 C3          52.8410   -15.7360    -4.7810 c3         1 KFT      -0.071400
      4 C4          51.4560   -15.0660    -4.9460 c3         1 KFT      -0.100400
      5 O4          47.3260   -13.0680    -3.7860 oh         1 KFT      -0.661000
      6 C5          51.5260   -13.5270    -4.8740 c3         1 KFT       0.097000
      7 C6          49.5340   -12.7430    -6.2050 c          1 KFT       0.577100
      8 C7          48.1370   -12.0740    -5.9410 c5         1 KFT       0.096500
      9 C8          46.1410   -12.4510    -7.2200 c5         1 KFT       0.174500
     10 C9          45.0030   -11.7990    -8.0630 c3         1 KFT       0.177600
     11 N1          50.2050   -12.9120    -5.0100 ns         1 KFT      -0.494900
     12 O1          50.0110   -13.0440    -7.2940 o          1 KFT      -0.612100
     13 N2          47.3990   -11.6430    -7.1920 n7         1 KFT      -0.853400
     14 O2          43.8680   -12.6780    -8.1750 oh         1 KFT      -0.668000
     15 C10         45.7970   -12.6910    -5.7100 c5         1 KFT       0.147300
     16 O3          45.3440   -11.5170    -5.0120 oh         1 KFT      -0.638000
     17 C11         47.2120   -13.1190    -5.2180 c5         1 KFT       0.096300
     18 H1          52.4280   -19.0140    -6.0410 hc         1 KFT       0.032033
     19 H2          51.3030   -17.6720    -6.3180 hc         1 KFT       0.032033
     20 H3          52.9720   -17.5750    -6.9300 hc         1 KFT       0.032033
     21 H4          52.1480   -17.6260    -3.9590 hc         1 KFT       0.037200
     22 H5          53.8090   -17.6530    -4.5340 hc         1 KFT       0.037200
     23 H6          53.2880   -15.3950    -3.8400 hc         1 KFT       0.039700
     24 H7          53.5060   -15.3980    -5.5850 hc         1 KFT       0.039700
     25 H8          51.0200   -15.3570    -5.9080 hc         1 KFT       0.044200
     26 H9          50.7820   -15.4320    -4.1610 hc         1 KFT       0.044200
     27 H11         51.9530   -13.2240    -3.9080 h1         1 KFT       0.057700
     28 H12         52.1830   -13.1480    -5.6680 h1         1 KFT       0.057700
     29 H13         48.3100   -11.2030    -5.2930 h1         1 KFT       0.098700
     30 H14         46.3630   -13.4220    -7.6860 h1         1 KFT       0.042700
     31 H15         45.3980   -11.5700    -9.0620 h1         1 KFT       0.036700
     32 H16         44.7100   -10.8480    -7.5990 h1         1 KFT       0.036700
     33 H17         49.6960   -12.6610    -4.1680 hn         1 KFT       0.323500
     34 H18         47.9690   -11.8590    -8.0230 hn         1 KFT       0.446000
     35 H20         43.1870   -12.1970    -8.6960 ho         1 KFT       0.447000
     36 H21         45.0700   -13.5070    -5.5970 h1         1 KFT       0.056700
     37 H22         45.9100   -11.4800    -4.2090 ho         1 KFT       0.451000
     38 H23         47.4360   -14.1330    -5.5800 h1         1 KFT       0.049700
     39 H10         46.8710   -13.8640    -3.4260 ho         1 KFT       0.455000
@<TRIPOS>BOND
     1     1     2 1   
     2     1    18 1   
     3     1    19 1   
     4     1    20 1   
     5     2     3 1   
     6     2    21 1   
     7     2    22 1   
     8     3     4 1   
     9     3    23 1   
    10     3    24 1   
    11     4     6 1   
    12     4    25 1   
    13     4    26 1   
    14     5    17 1   
    15     5    39 1   
    16     6    11 1   
    17     6    27 1   
    18     6    28 1   
    19     7     8 1   
    20     7    11 1   
    21     7    12 2   
    22     8    13 1   
    23     8    17 1   
    24     8    29 1   
    25     9    10 1   
    26     9    13 1   
    27     9    15 1   
    28     9    30 1   
    29    10    14 1   
    30    10    31 1   
    31    10    32 1   
    32    11    33 1   
    33    13    34 1   
    34    14    35 1   
    35    15    16 1   
    36    15    17 1   
    37    15    36 1   
    38    16    37 1   
    39    17    38 1   
@<TRIPOS>SUBSTRUCTURE
     1 KFT         1 TEMP              0 ****  ****    0 ROOT
