@<TRIPOS>MOLECULE
KFU
   36    39     1     0     0
SMALL
abcg2


@<TRIPOS>ATOM
      1 N1         -16.9830     4.0990    26.5510 nb         1 KFU      -0.652000
      2 C4         -22.9960     6.7880    29.4670 c5         1 KFU       0.165600
      3 C5         -22.3030     5.6250    28.7300 c5         1 KFU      -0.119400
      4 C6         -20.8540     5.9390    28.3600 c          1 KFU       0.603100
      5 C7         -19.0420     5.3080    26.8440 ca         1 KFU      -0.080000
      6 C8         -18.2790     4.1720    26.9430 ca         1 KFU       0.312900
      7 C10        -17.1090     6.4160    25.9030 ca         1 KFU      -0.091000
      8 C13        -18.5450     8.7830    25.5540 ca         1 KFU      -0.091000
      9 C15        -18.4750     6.4870    26.2940 ca         1 KFU       0.000000
     10 C17        -21.9610     3.2090    29.7240 ca         1 KFU      -0.044000
     11 O1         -20.1620     6.6990    29.0230 o          1 KFU      -0.561100
     12 O          -23.0740     6.4210    30.8770 os         1 KFU      -0.323100
     13 C16        -22.3280     4.5410    29.7860 ca         1 KFU      -0.173300
     14 C3         -22.7560     5.1050    30.9830 ca         1 KFU       0.147100
     15 C2         -22.8310     4.3640    32.1520 ca         1 KFU      -0.127000
     16 C1         -22.4660     3.0190    32.0960 ca         1 KFU      -0.058000
     17 C          -22.0420     2.4600    30.8960 ca         1 KFU       0.085000
     18 CL         -21.5950     0.7640    30.8520 cl         1 KFU      -0.209000
     19 N          -20.3980     5.2760    27.2680 ns         1 KFU      -0.166000
     20 C14        -19.1810     7.6960    26.0980 ca         1 KFU      -0.087000
     21 C12        -17.1830     8.7190    25.1840 ca         1 KFU      -0.106000
     22 C11        -16.4770     7.5560    25.3530 ca         1 KFU      -0.084000
     23 C9         -16.4280     5.1860    26.0630 ca         1 KFU       0.360900
     24 H2         -24.0140     6.9310    29.1060 h1         1 KFU       0.073700
     25 H3         -22.8580     5.3350    27.8370 hc         1 KFU       0.078700
     26 H4         -18.7140     3.2690    27.3560 h4         1 KFU       0.022100
     27 H5         -19.0920     9.7040    25.4030 ha         1 KFU       0.116000
     28 H6         -21.6190     2.7600    28.8010 ha         1 KFU       0.126000
     29 H7         -23.1660     4.8100    33.0790 ha         1 KFU       0.139000
     30 H8         -22.5150     2.4090    32.9860 ha         1 KFU       0.134000
     31 H9         -21.0070     4.6000    26.8310 hn         1 KFU       0.156000
     32 H10        -20.2240     7.7560    26.3760 ha         1 KFU       0.120000
     33 H11        -16.7030     9.5920    24.7610 ha         1 KFU       0.118000
     34 H12        -15.4350     7.4890    25.0660 ha         1 KFU       0.119000
     35 H13        -15.3860     5.1220    25.7640 h4         1 KFU       0.022100
     36 H1         -22.4380     7.7180    29.4010 h1         1 KFU       0.073700
@<TRIPOS>BOND
     1     1     6 ar  
     2     1    23 ar  
     3     2     3 1   
     4     2    12 1   
     5     2    24 1   
     6     2    36 1   
     7     3     4 1   
     8     3    13 1   
     9     3    25 1   
    10     4    11 2   
    11     4    19 1   
    12     5     6 ar  
    13     5     9 ar  
    14     5    19 1   
    15     6    26 1   
    16     7     9 ar  
    17     7    22 ar  
    18     7    23 ar  
    19     8    20 ar  
    20     8    21 ar  
    21     8    27 1   
    22     9    20 ar  
    23    10    13 ar  
    24    10    17 ar  
    25    10    28 1   
    26    12    14 1   
    27    13    14 ar  
    28    14    15 ar  
    29    15    16 ar  
    30    15    29 1   
    31    16    17 ar  
    32    16    30 1   
    33    17    18 1   
    34    19    31 1   
    35    20    32 1   
    36    21    22 ar  
    37    21    33 1   
    38    22    34 1   
    39    23    35 1   
@<TRIPOS>SUBSTRUCTURE
     1 KFU         1 TEMP              0 ****  ****    0 ROOT
