@<TRIPOS>MOLECULE
KFU
   36    39     1     0     0
SMALL
No Charge or Current Charge


@<TRIPOS>ATOM
      1 N1         -17.0340     4.1370    25.4860 nb         1 KFU      -0.652000
      2 C4         -22.9710     6.3650    28.9060 c5         1 KFU       0.165600
      3 C5         -22.1000     5.0810    28.6210 c5         1 KFU      -0.119400
      4 C6         -20.6280     5.5130    28.4000 c          1 KFU       0.603100
      5 C7         -18.9450     5.2450    26.5140 ca         1 KFU      -0.080000
      6 C8         -18.2450     4.0980    26.0850 ca         1 KFU       0.312900
      7 C10        -17.1010     6.5590    25.6470 ca         1 KFU      -0.091000
      8 C13        -18.3880     8.9630    26.3250 ca         1 KFU      -0.091000
      9 C15        -18.3690     6.5180    26.2710 ca         1 KFU       0.000000
     10 C17        -21.9750     3.0660    30.2800 ca         1 KFU      -0.044000
     11 O1         -19.9240     6.1440    29.1810 o          1 KFU      -0.561100
     12 O          -23.1610     6.4790    30.3580 os         1 KFU      -0.323100
     13 C16        -22.3150     4.3830    29.9310 ca         1 KFU      -0.173300
     14 C3         -22.9030     5.2280    30.8440 ca         1 KFU       0.147100
     15 C2         -23.1710     4.8190    32.1560 ca         1 KFU      -0.127000
     16 C1         -22.8410     3.4990    32.5300 ca         1 KFU      -0.058000
     17 C          -22.2460     2.6260    31.5920 ca         1 KFU       0.085000
     18 Cl         -21.8320     0.9830    32.0660 cl         1 KFU      -0.209000
     19 N          -20.1990     5.0630    27.1600 ns         1 KFU      -0.166000
     20 C14        -19.0150     7.7340    26.5920 ca         1 KFU      -0.087000
     21 C12        -17.1170     8.9940    25.7280 ca         1 KFU      -0.106000
     22 C11        -16.4750     7.7930    25.3840 ca         1 KFU      -0.084000
     23 C9         -16.4750     5.3510    25.2820 ca         1 KFU       0.360900
     24 H2         -23.9640     6.2550    28.4490 h1         1 KFU       0.073700
     25 H3         -22.4860     4.5150    27.7650 hc         1 KFU       0.078700
     26 H4         -18.6640     3.1050    26.2460 h4         1 KFU       0.022100
     27 H5         -18.8900     9.8940    26.5790 ha         1 KFU       0.116000
     28 H6         -21.5090     2.3980    29.5590 ha         1 KFU       0.126000
     29 H7         -23.6270     5.5040    32.8660 ha         1 KFU       0.139000
     30 H8         -23.0420     3.1530    33.5410 ha         1 KFU       0.134000
     31 H9         -20.8670     4.5000    26.6470 hn         1 KFU       0.156000
     32 H10        -20.0050     7.7450    27.0370 ha         1 KFU       0.120000
     33 H11        -16.6360     9.9470    25.5220 ha         1 KFU       0.118000
     34 H12        -15.4960     7.8240    24.9090 ha         1 KFU       0.119000
     35 H13        -15.4990     5.3550    24.7980 h4         1 KFU       0.022100
     36 H1         -22.5270     7.2900    28.5140 h1         1 KFU       0.073700
@<TRIPOS>BOND
     1     1     6 ar  
     2     1    23 ar  
     3     2     3 1   
     4     2    12 1   
     5     2    24 1   
     6     2    36 1   
     7     3     4 1   
     8     3    13 1   
     9     3    25 1   
    10     4    11 2   
    11     4    19 1   
    12     5     6 ar  
    13     5     9 ar  
    14     5    19 1   
    15     6    26 1   
    16     7     9 ar  
    17     7    22 ar  
    18     7    23 ar  
    19     8    20 ar  
    20     8    21 ar  
    21     8    27 1   
    22     9    20 ar  
    23    10    13 ar  
    24    10    17 ar  
    25    10    28 1   
    26    12    14 1   
    27    13    14 ar  
    28    14    15 ar  
    29    15    16 ar  
    30    15    29 1   
    31    16    17 ar  
    32    16    30 1   
    33    17    18 1   
    34    19    31 1   
    35    20    32 1   
    36    21    22 ar  
    37    21    33 1   
    38    22    34 1   
    39    23    35 1   
@<TRIPOS>SUBSTRUCTURE
     1 KFU         1 TEMP              0 ****  ****    0 ROOT
