@<TRIPOS>MOLECULE
KFW
   22    22     1     0     0
SMALL
abcg2


@<TRIPOS>ATOM
      1 N1          47.8990   -13.0430    -7.3560 n7         1 KFW      -0.850400
      2 C1          45.8220   -13.8110    -6.3130 c3         1 KFW       0.159600
      3 C2          46.7970   -13.9840    -7.4640 c6         1 KFW       0.141500
      4 C3          48.9490   -13.3220    -8.3190 c6         1 KFW       0.159800
      5 C4          48.4010   -13.1700    -9.7290 c6         1 KFW      -0.076400
      6 C5          47.1840   -14.0670    -9.9290 c6         1 KFW      -0.076400
      7 C6          46.1480   -13.8110    -8.8440 c6         1 KFW       0.178300
      8 O1          45.1570   -12.5720    -6.4140 oh         1 KFW      -0.649000
      9 O2          45.0730   -14.7070    -9.0400 oh         1 KFW      -0.666000
     10 H1          48.2820   -13.0850    -6.4200 hn         1 KFW       0.411000
     11 H3          45.1180   -14.6520    -6.3200 h1         1 KFW       0.018700
     12 H4          46.3820   -13.8920    -5.3700 h1         1 KFW       0.018700
     13 H5          47.1510   -15.0310    -7.4000 h1         1 KFW       0.029700
     14 H6          49.3610   -14.3390    -8.2060 h1         1 KFW       0.029700
     15 H7          49.7720   -12.6230    -8.1560 h1         1 KFW       0.029700
     16 H8          49.1760   -13.4170   -10.4580 hc         1 KFW       0.048700
     17 H9          48.1240   -12.1260    -9.8980 hc         1 KFW       0.048700
     18 H10         46.7420   -13.9020   -10.9150 hc         1 KFW       0.050200
     19 H11         47.4950   -15.1170    -9.8840 hc         1 KFW       0.050200
     20 H12         45.8080   -12.7710    -8.9330 h1         1 KFW       0.061700
     21 H13         44.5090   -12.5230    -5.7060 ho         1 KFW       0.439000
     22 H14         44.3230   -14.4010    -8.5210 ho         1 KFW       0.445000
@<TRIPOS>BOND
     1     1     3 1   
     2     1     4 1   
     3     1    10 1   
     4     2     3 1   
     5     2     8 1   
     6     2    11 1   
     7     2    12 1   
     8     3     7 1   
     9     3    13 1   
    10     4     5 1   
    11     4    14 1   
    12     4    15 1   
    13     5     6 1   
    14     5    16 1   
    15     5    17 1   
    16     6     7 1   
    17     6    18 1   
    18     6    19 1   
    19     7     9 1   
    20     7    20 1   
    21     8    21 1   
    22     9    22 1   
@<TRIPOS>SUBSTRUCTURE
     1 KFW         1 TEMP              0 ****  ****    0 ROOT
