@<TRIPOS>MOLECULE
KFW
   22    22     1     0     0
SMALL
No Charge or Current Charge


@<TRIPOS>ATOM
      1 N1          47.9590   -13.0860    -7.2980 n7         1 KFW      -0.850400
      2 C1          45.7450   -13.7730    -6.2930 c3         1 KFW       0.159600
      3 C2          46.7800   -13.9980    -7.4540 c6         1 KFW       0.141500
      4 C3          48.9990   -13.3020    -8.3320 c6         1 KFW       0.159800
      5 C4          48.4160   -13.1380    -9.7560 c6         1 KFW      -0.076400
      6 C5          47.2070   -14.0820    -9.9770 c6         1 KFW      -0.076400
      7 C6          46.1320   -13.8690    -8.8800 c6         1 KFW       0.178300
      8 O1          45.0840   -12.4950    -6.3470 oh         1 KFW      -0.649000
      9 O2          45.0670   -14.8160    -9.0720 oh         1 KFW      -0.666000
     10 H1          48.3760   -13.2330    -6.3710 hn         1 KFW       0.411000
     11 H3          44.9980   -14.5770    -6.3340 h1         1 KFW       0.018700
     12 H4          46.2740   -13.8800    -5.3370 h1         1 KFW       0.018700
     13 H5          47.1470   -15.0300    -7.3470 h1         1 KFW       0.029700
     14 H6          49.4190   -14.3130    -8.2210 h1         1 KFW       0.029700
     15 H7          49.8180   -12.5830    -8.1830 h1         1 KFW       0.029700
     16 H8          49.1950   -13.3450   -10.5020 hc         1 KFW       0.048700
     17 H9          48.1060   -12.0950    -9.9090 hc         1 KFW       0.048700
     18 H10         46.7720   -13.9040   -10.9700 hc         1 KFW       0.050200
     19 H11         47.5500   -15.1250    -9.9650 hc         1 KFW       0.050200
     20 H12         45.7430   -12.8450    -8.9880 h1         1 KFW       0.061700
     21 H13         44.5840   -12.3970    -5.5070 ho         1 KFW       0.439000
     22 H14         44.3030   -14.4830    -8.5510 ho         1 KFW       0.445000
@<TRIPOS>BOND
     1     1     3 1   
     2     1     4 1   
     3     1    10 1   
     4     2     3 1   
     5     2     8 1   
     6     2    11 1   
     7     2    12 1   
     8     3     7 1   
     9     3    13 1   
    10     4     5 1   
    11     4    14 1   
    12     4    15 1   
    13     5     6 1   
    14     5    16 1   
    15     5    17 1   
    16     6     7 1   
    17     6    18 1   
    18     6    19 1   
    19     7     9 1   
    20     7    20 1   
    21     8    21 1   
    22     9    22 1   
@<TRIPOS>SUBSTRUCTURE
     1 KFW         1 TEMP              0 ****  ****    0 ROOT
