@<TRIPOS>MOLECULE
KFX
   43    46     1     0     0
SMALL
No Charge or Current Charge


@<TRIPOS>ATOM
      1 C10         92.9690   -12.8090     5.3100 ca         1 KFX      -0.123500
      2 C11         93.6640   -13.8580     4.6900 ca         1 KFX      -0.101000
      3 C13         94.6660   -14.4500     6.8290 ca         1 KFX      -0.077500
      4 C15         91.9530    -6.6230    16.1960 cc         1 KFX       0.283900
      5 C16         91.9960    -6.6410    14.8000 cd         1 KFX      -0.084300
      6 C17         92.1660    -8.9320    16.4360 cd         1 KFX       0.399300
      7 C18         92.2170    -9.0220    15.0160 cd         1 KFX      -0.113000
      8 C21         92.3230    -9.4940    12.9720 cc         1 KFX       0.513300
      9 C24         91.9040    -5.4130    13.9220 c3         1 KFX      -0.043800
     10 C25         92.4470   -10.3720    11.7280 c3         1 KFX       0.219500
     11 N1          94.7510   -13.3190    10.9100 na         1 KFX      -0.096700
     12 N2          94.9210   -13.8980     9.6930 nc         1 KFX      -0.540800
     13 C3          94.1300   -13.1520     8.9240 cd         1 KFX       0.614500
     14 N4          93.4670   -12.1310     9.5850 nd         1 KFX      -0.764000
     15 C5          93.8760   -12.2660    10.8120 cc         1 KFX       0.671400
     16 C7          93.9710   -13.3950     7.4690 ca         1 KFX      -0.120500
     17 N8          93.4700   -11.4580    11.8260 nu         1 KFX      -0.906100
     18 C9          93.1200   -12.5780     6.6890 ca         1 KFX      -0.077500
     19 C12         94.5120   -14.6770     5.4500 ca         1 KFX      -0.123500
     20 N14         92.0360    -7.7440    17.0240 nc         1 KFX      -0.643000
     21 N19         92.1340    -7.9120    14.2480 na         1 KFX       0.313400
     22 N20         92.1970    -8.1690    12.9150 nd         1 KFX      -0.579100
     23 N22         92.3400   -10.0700    14.2270 nc         1 KFX      -0.402300
     24 H31         92.3110   -12.1720     4.7220 ha         1 KFX       0.111500
     25 H32         93.5470   -14.0350     3.6230 ha         1 KFX       0.110000
     26 H34         95.3290   -15.0990     7.3970 ha         1 KFX       0.128500
     27 H35         91.8480    -5.6920    16.7390 h4         1 KFX       0.041100
     28 H37         92.1600    -9.8710    18.3900 hc         1 KFX       0.064033
     29 H38         91.4610   -10.8530    17.0930 hc         1 KFX       0.064033
     30 H36         93.2170   -10.6450    17.1970 hc         1 KFX       0.064033
     31 H40         92.8020    -5.3020    13.3030 hc         1 KFX       0.066367
     32 H39         91.0380    -5.4700    13.2510 hc         1 KFX       0.066367
     33 H41         91.8000    -4.4990    14.5200 hc         1 KFX       0.066367
     34 H42         92.6800    -9.7200    10.8760 h1         1 KFX       0.076700
     35 H43         91.4600   -10.8110    11.5300 h1         1 KFX       0.076700
     36 H28         96.1100   -14.6510    11.8390 h1         1 KFX       0.056700
     37 H26         96.0510   -13.0100    12.5450 h1         1 KFX       0.056700
     38 H27         94.7150   -14.1640    12.8440 h1         1 KFX       0.056700
     39 H29         93.7970   -11.7290    12.7510 hn         1 KFX       0.498000
     40 H30         92.5700   -11.7580     7.1470 ha         1 KFX       0.128500
     41 H33         95.0530   -15.4910     4.9720 ha         1 KFX       0.111500
     42 C6          95.4490   -13.8170    12.1070 c3         1 KFX       0.075900
     43 C23         92.2550   -10.1370    17.3310 c3         1 KFX      -0.140400
@<TRIPOS>BOND
     1     1     2 ar  
     2     1    18 ar  
     3     1    24 1   
     4     2    19 ar  
     5     2    25 1   
     6     3    16 ar  
     7     3    19 ar  
     8     3    26 1   
     9     4     5 2   
    10     4    20 1   
    11     4    27 1   
    12     5     9 1   
    13     5    21 1   
    14     6     7 1   
    15     6    20 2   
    16     6    43 1   
    17     7    21 1   
    18     7    23 2   
    19     8    10 1   
    20     8    22 2   
    21     8    23 1   
    22     9    31 1   
    23     9    32 1   
    24     9    33 1   
    25    10    17 1   
    26    10    34 1   
    27    10    35 1   
    28    11    12 1   
    29    11    15 1   
    30    11    42 1   
    31    12    13 2   
    32    13    14 1   
    33    13    16 1   
    34    14    15 2   
    35    15    17 1   
    36    16    18 ar  
    37    17    39 1   
    38    18    40 1   
    39    19    41 1   
    40    21    22 1   
    41    28    43 1   
    42    29    43 1   
    43    30    43 1   
    44    36    42 1   
    45    37    42 1   
    46    38    42 1   
@<TRIPOS>SUBSTRUCTURE
     1 KFX         1 TEMP              0 ****  ****    0 ROOT
