@<TRIPOS>MOLECULE
KFX
   43    46     1     0     0
SMALL
abcg2


@<TRIPOS>ATOM
      1 C10         93.0410   -12.6940     5.4050 ca         1 KFX      -0.123500
      2 C11         93.6730   -13.7730     4.8010 ca         1 KFX      -0.101000
      3 C13         94.5640   -14.4330     6.9380 ca         1 KFX      -0.077500
      4 C15         91.8260    -6.6980    16.1220 cc         1 KFX       0.283900
      5 C16         91.8820    -6.6990    14.7580 cd         1 KFX      -0.084300
      6 C17         92.3120    -8.9380    16.3490 cd         1 KFX       0.399300
      7 C18         92.3870    -9.0340    14.9390 cd         1 KFX      -0.113000
      8 C21         92.5630    -9.4750    12.9080 cc         1 KFX       0.513300
      9 C24         91.6610    -5.5300    13.8730 c3         1 KFX      -0.043800
     10 C25         92.7350   -10.2530    11.6480 c3         1 KFX       0.219500
     11 N1          94.6070   -13.3410    10.9910 na         1 KFX      -0.096700
     12 N2          94.7150   -13.9330     9.7850 nc         1 KFX      -0.540800
     13 C3          94.0670   -13.1180     8.9900 cd         1 KFX       0.614500
     14 N4          93.5300   -12.0410     9.6140 nd         1 KFX      -0.764000
     15 C5          93.8820   -12.2160    10.8710 cc         1 KFX       0.671400
     16 C7          93.9340   -13.3500     7.5510 ca         1 KFX      -0.120500
     17 N8          93.6160   -11.3710    11.8970 nu         1 KFX      -0.906100
     18 C9          93.1700   -12.4830     6.7700 ca         1 KFX      -0.077500
     19 C12         94.4350   -14.6410     5.5740 ca         1 KFX      -0.123500
     20 N14         92.0360    -7.7870    16.8980 nc         1 KFX      -0.643000
     21 N19         92.1690    -7.9090    14.2020 na         1 KFX       0.313400
     22 N20         92.2850    -8.1820    12.9040 nd         1 KFX      -0.579100
     23 N22         92.6380   -10.0430    14.1170 nc         1 KFX      -0.402300
     24 H31         92.4440   -12.0130     4.8120 ha         1 KFX       0.111500
     25 H32         93.5720   -13.9370     3.7360 ha         1 KFX       0.110000
     26 H34         95.1610   -15.1160     7.5290 ha         1 KFX       0.128500
     27 H35         91.6000    -5.7730    16.6360 h4         1 KFX       0.041100
     28 H37         92.4620    -9.9050    18.2400 hc         1 KFX       0.064033
     29 H38         91.8320   -10.9350    16.9430 hc         1 KFX       0.064033
     30 H36         93.5450   -10.5580    16.9990 hc         1 KFX       0.064033
     31 H40         92.5440    -5.3220    13.2680 hc         1 KFX       0.066367
     32 H39         90.8310    -5.7080    13.1870 hc         1 KFX       0.066367
     33 H41         91.4350    -4.6510    14.4700 hc         1 KFX       0.066367
     34 H42         93.1530    -9.6100    10.8740 h1         1 KFX       0.076700
     35 H43         91.7490   -10.5770    11.2910 h1         1 KFX       0.076700
     36 H28         96.0810   -14.4650    11.9050 h1         1 KFX       0.056700
     37 H26         95.4220   -13.1620    12.8930 h1         1 KFX       0.056700
     38 H27         94.4750   -14.6400    12.6380 h1         1 KFX       0.056700
     39 H29         93.5230   -11.7810    12.8160 hn         1 KFX       0.498000
     40 H30         92.6740   -11.6400     7.2340 ha         1 KFX       0.128500
     41 H33         94.9310   -15.4850     5.1120 ha         1 KFX       0.111500
     42 C6          95.1700   -13.9390    12.1750 c3         1 KFX       0.075900
     43 C23         92.5510   -10.1500    17.1840 c3         1 KFX      -0.140400
@<TRIPOS>BOND
     1     1     2 ar  
     2     1    18 ar  
     3     1    24 1   
     4     2    19 ar  
     5     2    25 1   
     6     3    16 ar  
     7     3    19 ar  
     8     3    26 1   
     9     4     5 2   
    10     4    20 1   
    11     4    27 1   
    12     5     9 1   
    13     5    21 1   
    14     6     7 1   
    15     6    20 2   
    16     6    43 1   
    17     7    21 1   
    18     7    23 2   
    19     8    10 1   
    20     8    22 2   
    21     8    23 1   
    22     9    31 1   
    23     9    32 1   
    24     9    33 1   
    25    10    17 1   
    26    10    34 1   
    27    10    35 1   
    28    11    12 1   
    29    11    15 1   
    30    11    42 1   
    31    12    13 2   
    32    13    14 1   
    33    13    16 1   
    34    14    15 2   
    35    15    17 1   
    36    16    18 ar  
    37    17    39 1   
    38    18    40 1   
    39    19    41 1   
    40    21    22 1   
    41    28    43 1   
    42    29    43 1   
    43    30    43 1   
    44    36    42 1   
    45    37    42 1   
    46    38    42 1   
@<TRIPOS>SUBSTRUCTURE
     1 KFX         1 TEMP              0 ****  ****    0 ROOT
