@<TRIPOS>MOLECULE
KFY
   50    52     1     0     0
SMALL
No Charge or Current Charge


@<TRIPOS>ATOM
      1 C4          -2.7310     0.8470    -0.1280 ca         1 KFY       0.126500
      2 C5          -2.6800     1.8250     0.8350 ca         1 KFY      -0.097600
      3 C6          -3.5750     2.9100     0.7250 ca         1 KFY       0.443900
      4 C8          -1.1600     0.4040     1.4110 cc         1 KFY       0.407800
      5 N1          -4.4470     2.9920    -0.2930 nb         1 KFY      -0.301000
      6 N3          -3.5960     0.8950    -1.1610 nb         1 KFY      -0.218000
      7 CAA         -3.9120    -4.3580    -0.0130 c3         1 KFY      -0.063900
      8 CAF         -3.2010    -3.1490    -0.5820 c2         1 KFY      -0.171200
      9 CAG         -2.2120    -2.4770     0.0280 c2         1 KFY      -0.267200
     10 N9          -1.7690    -0.0520     0.2350 na         1 KFY      -0.265300
     11 C2          -4.4150     1.9750    -1.1880 ca         1 KFY       0.178900
     12 N6          -3.6040     3.9300     1.6240 nv         1 KFY      -1.059900
     13 N7          -1.7050     1.5700     1.8090 nd         1 KFY      -0.560100
     14 CAL         -0.0580    -0.3110     2.1500 c3         1 KFY      -0.048400
     15 CAS          1.2280    -0.4490     1.3420 ca         1 KFY      -0.019300
     16 CAJ          1.7710    -1.7150     1.0830 ca         1 KFY      -0.223500
     17 CAI          1.8730     0.6930     0.8470 ca         1 KFY      -0.223500
     18 CAU          3.0590     0.5930     0.0840 ca         1 KFY       0.159100
     19 OAP          3.6730     1.7380    -0.3970 os         1 KFY      -0.322600
     20 CAB          3.1590     3.0630    -0.1710 c3         1 KFY       0.144900
     21 CAX          3.6110    -0.6990    -0.1840 ca         1 KFY       0.026100
     22 OAR          4.7730    -0.9290    -0.9250 os         1 KFY      -0.327100
     23 CAD          5.5860     0.0930    -1.5280 c3         1 KFY       0.147900
     24 CAV          2.9530    -1.8460     0.3230 ca         1 KFY       0.159100
     25 OAQ          3.5000    -3.0900     0.0510 os         1 KFY      -0.322600
     26 CAC          2.9020    -4.3180     0.5030 c3         1 KFY       0.144900
     27 H1          -3.5210    -4.6300     0.9750 hc         1 KFY       0.044367
     28 H2          -4.9860    -4.1650     0.0940 hc         1 KFY       0.044367
     29 H3          -3.7920    -5.2280    -0.6700 hc         1 KFY       0.044367
     30 H4          -3.5590    -2.8390    -1.5670 ha         1 KFY       0.177000
     31 H5          -1.8550    -2.7900     1.0100 ha         1 KFY       0.171000
     32 H6          -0.4120    -1.4560    -0.5530 h1         1 KFY       0.075700
     33 H7          -1.7970    -1.1110    -1.5840 h1         1 KFY       0.075700
     34 H8          -5.1200     2.0310    -2.0160 h5         1 KFY       0.045100
     35 H9          -2.8180     3.9940     2.2660 hn         1 KFY       0.501000
     36 H10         -4.0390     4.8060     1.3450 hn         1 KFY       0.501000
     37 H11          0.1600     0.2280     3.0790 hc         1 KFY       0.073700
     38 H12         -0.4270    -1.2930     2.4620 hc         1 KFY       0.073700
     39 H13          1.2610    -2.5900     1.4740 ha         1 KFY       0.126500
     40 H14          1.4300     1.6600     1.0670 ha         1 KFY       0.126500
     41 H15          3.8080     3.8080    -0.6480 h1         1 KFY       0.042533
     42 H16          2.1520     3.1690    -0.5960 h1         1 KFY       0.042533
     43 H17          3.1170     3.2880     0.9020 h1         1 KFY       0.042533
     44 H18          5.0120     0.6680    -2.2640 h1         1 KFY       0.033367
     45 H19          5.9880     0.7750    -0.7670 h1         1 KFY       0.033367
     46 H20          6.4360    -0.3630    -2.0500 h1         1 KFY       0.033367
     47 H21          2.8500    -4.3460     1.5990 h1         1 KFY       0.042533
     48 H22          1.8890    -4.4320     0.0980 h1         1 KFY       0.042533
     49 H23          3.4990    -5.1760     0.1700 h1         1 KFY       0.042533
     50 CAK         -1.4930    -1.2720    -0.5410 c3         1 KFY       0.116800
@<TRIPOS>BOND
     1     1     2 ar  
     2     1     6 ar  
     3     1    10 1   
     4     2     3 ar  
     5     2    13 1   
     6     3     5 ar  
     7     3    12 1   
     8     4    10 1   
     9     4    13 2   
    10     4    14 1   
    11     5    11 ar  
    12     6    11 ar  
    13     7     8 1   
    14     7    27 1   
    15     7    28 1   
    16     7    29 1   
    17     8     9 2   
    18     8    30 1   
    19     9    31 1   
    20     9    50 1   
    21    10    50 1   
    22    11    34 1   
    23    12    35 1   
    24    12    36 1   
    25    14    15 1   
    26    14    37 1   
    27    14    38 1   
    28    15    16 ar  
    29    15    17 ar  
    30    16    24 ar  
    31    16    39 1   
    32    17    18 ar  
    33    17    40 1   
    34    18    19 1   
    35    18    21 ar  
    36    19    20 1   
    37    20    41 1   
    38    20    42 1   
    39    20    43 1   
    40    21    22 1   
    41    21    24 ar  
    42    22    23 1   
    43    23    44 1   
    44    23    45 1   
    45    23    46 1   
    46    24    25 1   
    47    25    26 1   
    48    26    47 1   
    49    26    48 1   
    50    26    49 1   
    51    32    50 1   
    52    33    50 1   
@<TRIPOS>SUBSTRUCTURE
     1 KFY         1 TEMP              0 ****  ****    0 ROOT
