@<TRIPOS>MOLECULE
KFY
   50    52     1     0     0
SMALL
abcg2


@<TRIPOS>ATOM
      1 C4          -2.7410     0.7720    -0.0900 ca         1 KFY       0.126500
      2 C5          -2.5770     1.7870     0.8390 ca         1 KFY      -0.097600
      3 C6          -3.4470     2.8850     0.7220 ca         1 KFY       0.443900
      4 C8          -1.1140     0.3280     1.3090 cc         1 KFY       0.407800
      5 N1          -4.3550     2.8640    -0.2600 nb         1 KFY      -0.301000
      6 N3          -3.6390     0.7360    -1.0720 nb         1 KFY      -0.218000
      7 CAA         -4.2550    -4.2190     0.2700 c3         1 KFY      -0.063900
      8 CAF         -3.4400    -3.1420    -0.3630 c2         1 KFY      -0.171200
      9 CAG         -2.4250    -2.5140     0.2200 c2         1 KFY      -0.267200
     10 N9          -1.7890    -0.1530     0.2160 na         1 KFY      -0.265300
     11 C2          -4.3980     1.8170    -1.0810 ca         1 KFY       0.178900
     12 N6          -3.4140     3.9290     1.5580 nv         1 KFY      -1.059900
     13 N7          -1.5570     1.4900     1.7040 nd         1 KFY      -0.560100
     14 CAL          0.0230    -0.4020     1.9370 c3         1 KFY      -0.048400
     15 CAS          1.2620    -0.4140     1.0690 ca         1 KFY      -0.019300
     16 CAJ          1.9060    -1.6140     0.8030 ca         1 KFY      -0.223500
     17 CAI          1.7510     0.7810     0.5560 ca         1 KFY      -0.223500
     18 CAU          2.9010     0.7760    -0.2290 ca         1 KFY       0.159100
     19 OAP          3.4540     1.8740    -0.7720 os         1 KFY      -0.322600
     20 CAB          2.8260     3.1220    -0.5540 c3         1 KFY       0.144900
     21 CAX          3.5550    -0.4280    -0.5070 ca         1 KFY       0.026100
     22 OAR          4.6590    -0.4380    -1.3000 os         1 KFY      -0.327100
     23 CAD          5.8820    -0.2730    -0.5950 c3         1 KFY       0.147900
     24 CAV          3.0600    -1.6230     0.0180 ca         1 KFY       0.159100
     25 OAQ          3.7540    -2.7290    -0.2950 os         1 KFY      -0.322600
     26 CAC          3.2680    -3.9790     0.1540 c3         1 KFY       0.144900
     27 H1          -3.9140    -4.4470     1.2790 hc         1 KFY       0.044367
     28 H2          -5.3060    -3.9280     0.3230 hc         1 KFY       0.044367
     29 H3          -4.2170    -5.1370    -0.3210 hc         1 KFY       0.044367
     30 H4          -3.7110    -2.8650    -1.3790 ha         1 KFY       0.177000
     31 H5          -2.1400    -2.7740     1.2370 ha         1 KFY       0.171000
     32 H6          -0.5610    -1.6790    -0.4560 h1         1 KFY       0.075700
     33 H7          -1.9340    -1.3120    -1.4840 h1         1 KFY       0.075700
     34 H8          -5.1560     1.8630    -1.8550 h5         1 KFY       0.045100
     35 H9          -2.6600     4.0310     2.2150 hn         1 KFY       0.501000
     36 H10         -3.9680     4.7430     1.3540 hn         1 KFY       0.501000
     37 H11          0.2390     0.0940     2.8850 hc         1 KFY       0.073700
     38 H12         -0.2690    -1.4260     2.1820 hc         1 KFY       0.073700
     39 H13          1.5010    -2.5300     1.2110 ha         1 KFY       0.126500
     40 H14          1.2330     1.7040     0.7790 ha         1 KFY       0.126500
     41 H15          3.4220     3.8620    -1.0820 h1         1 KFY       0.042533
     42 H16          1.8080     3.1430    -0.9520 h1         1 KFY       0.042533
     43 H17          2.7980     3.3860     0.5060 h1         1 KFY       0.042533
     44 H18          5.9210     0.6850    -0.0710 h1         1 KFY       0.033367
     45 H19          6.0430    -1.0750     0.1290 h1         1 KFY       0.033367
     46 H20          6.6840    -0.3010    -1.3300 h1         1 KFY       0.033367
     47 H21          3.2420    -4.0420     1.2440 h1         1 KFY       0.042533
     48 H22          2.2690    -4.1900    -0.2360 h1         1 KFY       0.042533
     49 H23          3.9570    -4.7310    -0.2230 h1         1 KFY       0.042533
     50 CAK         -1.6250    -1.4380    -0.4470 c3         1 KFY       0.116800
@<TRIPOS>BOND
     1     1     2 ar  
     2     1     6 ar  
     3     1    10 1   
     4     2     3 ar  
     5     2    13 1   
     6     3     5 ar  
     7     3    12 1   
     8     4    10 1   
     9     4    13 2   
    10     4    14 1   
    11     5    11 ar  
    12     6    11 ar  
    13     7     8 1   
    14     7    27 1   
    15     7    28 1   
    16     7    29 1   
    17     8     9 2   
    18     8    30 1   
    19     9    31 1   
    20     9    50 1   
    21    10    50 1   
    22    11    34 1   
    23    12    35 1   
    24    12    36 1   
    25    14    15 1   
    26    14    37 1   
    27    14    38 1   
    28    15    16 ar  
    29    15    17 ar  
    30    16    24 ar  
    31    16    39 1   
    32    17    18 ar  
    33    17    40 1   
    34    18    19 1   
    35    18    21 ar  
    36    19    20 1   
    37    20    41 1   
    38    20    42 1   
    39    20    43 1   
    40    21    22 1   
    41    21    24 ar  
    42    22    23 1   
    43    23    44 1   
    44    23    45 1   
    45    23    46 1   
    46    24    25 1   
    47    25    26 1   
    48    26    47 1   
    49    26    48 1   
    50    26    49 1   
    51    32    50 1   
    52    33    50 1   
@<TRIPOS>SUBSTRUCTURE
     1 KFY         1 TEMP              0 ****  ****    0 ROOT
