@<TRIPOS>MOLECULE
KFZ
   34    36     1     0     0
SMALL
No Charge or Current Charge


@<TRIPOS>ATOM
      1 Cl1          2.6370    -2.3980     1.7470 cl         1 KFZ      -0.180000
      2 CAQ          3.5620    -1.2470     0.7830 ca         1 KFZ       0.132000
      3 CAF          4.9560    -1.1940     0.9550 ca         1 KFZ      -0.098000
      4 CAE          5.7270    -0.2860     0.2090 ca         1 KFZ      -0.090000
      5 CAO          5.1010     0.5720    -0.7090 ca         1 KFZ       0.116000
      6 Cl2          6.0620     1.7120    -1.6410 cl         1 KFZ      -0.192000
      7 CAG          3.7080     0.5230    -0.8850 ca         1 KFZ      -0.083000
      8 CAS          2.9260    -0.3870    -0.1430 ca         1 KFZ      -0.067300
      9 CAJ          1.4150    -0.4160    -0.3490 c3         1 KFZ       0.092900
     10 SAN          0.5660     0.6170     0.9260 ss         1 KFZ      -0.182200
     11 CAT         -1.1260     0.4090     0.5030 cc         1 KFZ       0.545200
     12 NAL         -1.5740    -0.3560    -0.5440 nc         1 KFZ      -0.401300
     13 NAM         -2.0030     1.0490     1.2670 nd         1 KFZ      -0.557100
     14 NAV         -3.1270     0.6280     0.6160 na         1 KFZ       0.061900
     15 CAU         -2.8680    -0.1960    -0.4480 cd         1 KFZ       0.453500
     16 NAK         -3.7460    -0.8000    -1.3210 nd         1 KFZ      -0.668000
     17 CAR         -4.9940    -0.4680    -0.9940 cc         1 KFZ       0.449300
     18 CAI         -6.1130    -1.0260    -1.8380 c3         1 KFZ      -0.130700
     19 CAA         -6.6260    -0.0330    -2.9030 c3         1 KFZ      -0.079100
     20 CAH         -5.3720     0.3930     0.1040 cc         1 KFZ      -0.348000
     21 CAP         -4.4390     0.9670     0.9430 cd         1 KFZ       0.228100
     22 OAB         -4.7270     1.7780     1.9830 oh         1 KFZ      -0.481100
     23 HAF          5.4390    -1.8580     1.6680 ha         1 KFZ       0.135000
     24 HAE          6.8050    -0.2450     0.3420 ha         1 KFZ       0.135000
     25 HAG          3.2370     1.1970    -1.5970 ha         1 KFZ       0.137000
     26 HAJ1         1.1650    -0.0270    -1.3440 h1         1 KFZ       0.094700
     27 HAJ2         1.0410    -1.4460    -0.2930 h1         1 KFZ       0.094700
     28 HAB         -5.7020     1.8660     2.0120 ho         1 KFZ       0.498000
     29 HAH         -6.4290     0.5820     0.2540 ha         1 KFZ       0.140000
     30 HAI1        -5.7820    -1.9430    -2.3410 hc         1 KFZ       0.056700
     31 HAI2        -6.9490    -1.3210    -1.1930 hc         1 KFZ       0.056700
     32 HAA1        -7.0130     0.8780    -2.4310 hc         1 KFZ       0.044367
     33 HAA2        -5.8180     0.2490    -3.5890 hc         1 KFZ       0.044367
     34 HAA3        -7.4340    -0.4850    -3.4910 hc         1 KFZ       0.044367
@<TRIPOS>BOND
     1     1     2 1   
     2     2     3 ar  
     3     2     8 ar  
     4     3     4 ar  
     5     3    23 1   
     6     4     5 ar  
     7     4    24 1   
     8     5     6 1   
     9     5     7 ar  
    10     7     8 ar  
    11     7    25 1   
    12     8     9 1   
    13     9    10 1   
    14     9    26 1   
    15     9    27 1   
    16    10    11 1   
    17    11    12 1   
    18    11    13 2   
    19    12    15 2   
    20    13    14 1   
    21    14    15 1   
    22    14    21 1   
    23    15    16 1   
    24    16    17 2   
    25    17    18 1   
    26    17    20 1   
    27    18    19 1   
    28    18    30 1   
    29    18    31 1   
    30    19    32 1   
    31    19    33 1   
    32    19    34 1   
    33    20    21 2   
    34    20    29 1   
    35    21    22 1   
    36    22    28 1   
@<TRIPOS>SUBSTRUCTURE
     1 KFZ         1 TEMP              0 ****  ****    0 ROOT
