@<TRIPOS>MOLECULE
KFZ
   34    36     1     0     0
SMALL
bcc


@<TRIPOS>ATOM
      1 CL1          2.1850    -2.5250     0.8440 cl         1 KFZ      -0.088400
      2 CAQ          3.2640    -1.2770     0.3250 ca         1 KFZ       0.040400
      3 CAF          4.6190    -1.4270     0.5710 ca         1 KFZ      -0.116000
      4 CAE          5.5080    -0.4430     0.1700 ca         1 KFZ      -0.108000
      5 CAO          5.0210     0.6810    -0.4760 ca         1 KFZ       0.024400
      6 CL2          6.1190     1.9190    -0.9820 cl         1 KFZ      -0.100400
      7 CAG          3.6670     0.8310    -0.7240 ca         1 KFZ      -0.101000
      8 CAS          2.7650    -0.1530    -0.3320 ca         1 KFZ      -0.067300
      9 CAJ          1.3060     0.0370    -0.6010 c3         1 KFZ       0.045000
     10 SAN          0.5500     0.6590     0.9390 ss         1 KFZ      -0.134300
     11 CAT         -1.1430     0.5020     0.5610 cc         1 KFZ       0.545200
     12 NAL         -1.6140     0.0360    -0.6050 nc         1 KFZ      -0.401300
     13 NAM         -2.0380     0.8530     1.4640 nd         1 KFZ      -0.557100
     14 NAV         -3.1840     0.5840     0.8150 na         1 KFZ       0.011200
     15 CAU         -2.9270     0.0870    -0.4400 cd         1 KFZ       0.453500
     16 NAK         -3.8900    -0.2610    -1.2840 nd         1 KFZ      -0.668000
     17 CAR         -5.1300    -0.1110    -0.8650 cc         1 KFZ       0.514600
     18 CAI         -6.2510    -0.5080    -1.7810 c3         1 KFZ      -0.130700
     19 CAA         -5.8250    -0.9500    -3.1690 c3         1 KFZ      -0.079100
     20 CAH         -5.4540     0.3960     0.4100 cc         1 KFZ      -0.431300
     21 CAP         -4.4450     0.7500     1.2690 cd         1 KFZ       0.278800
     22 OAB         -4.5410     1.2320     2.4840 oh         1 KFZ      -0.442100
     23 HAF          4.9890    -2.3080     1.0760 ha         1 KFZ       0.153000
     24 HAE          6.5660    -0.5600     0.3620 ha         1 KFZ       0.153000
     25 HAG          3.3000     1.7150    -1.2290 ha         1 KFZ       0.155000
     26 HAJ1         1.1540     0.7650    -1.3950 h1         1 KFZ       0.094700
     27 HAJ2         0.8170    -0.8930    -0.8850 h1         1 KFZ       0.094700
     28 HAB         -5.4680     1.3250     2.7460 ho         1 KFZ       0.459000
     29 HAH         -6.4860     0.5050     0.7140 ha         1 KFZ       0.158000
     30 HAI1        -6.8130    -1.3080    -1.2880 hc         1 KFZ       0.056700
     31 HAI2        -6.9490     0.3300    -1.8470 hc         1 KFZ       0.056700
     32 HAA1        -5.2990    -0.1570    -3.7000 hc         1 KFZ       0.044367
     33 HAA2        -5.1690    -1.8190    -3.1340 hc         1 KFZ       0.044367
     34 HAA3        -6.7030    -1.2190    -3.7550 hc         1 KFZ       0.044367
@<TRIPOS>BOND
     1     1     2 1   
     2     2     3 ar  
     3     2     8 ar  
     4     3     4 ar  
     5     3    23 1   
     6     4     5 ar  
     7     4    24 1   
     8     5     6 1   
     9     5     7 ar  
    10     7     8 ar  
    11     7    25 1   
    12     8     9 1   
    13     9    10 1   
    14     9    26 1   
    15     9    27 1   
    16    10    11 1   
    17    11    12 1   
    18    11    13 2   
    19    12    15 2   
    20    13    14 1   
    21    14    15 1   
    22    14    21 1   
    23    15    16 1   
    24    16    17 2   
    25    17    18 1   
    26    17    20 1   
    27    18    19 1   
    28    18    30 1   
    29    18    31 1   
    30    19    32 1   
    31    19    33 1   
    32    19    34 1   
    33    20    21 2   
    34    20    29 1   
    35    21    22 1   
    36    22    28 1   
@<TRIPOS>SUBSTRUCTURE
     1 KFZ         1 TEMP              0 ****  ****    0 ROOT
