@<TRIPOS>MOLECULE
KG0
   56    58     1     0     0
SMALL
abcg2


@<TRIPOS>ATOM
      1 O23         18.1260    65.9450    45.3080 oh         1 KG0      -0.506000
      2 O26         16.5020    63.6290    38.3540 os         1 KG0      -0.349200
      3 C01         18.6000    64.4160    32.4040 cx         1 KG0      -0.142700
      4 C02         17.7750    63.2380    37.9280 c          1 KG0       0.684300
      5 C03         18.0850    63.4680    36.5580 cc         1 KG0      -0.474200
      6 C04         17.1650    64.0500    35.7240 cd         1 KG0       0.254100
      7 C05         18.8470    65.8610    32.0630 cx         1 KG0      -0.117900
      8 C06         18.6350    63.9860    33.8320 c3         1 KG0       0.193600
      9 C07         15.8830    64.4330    36.2300 cd         1 KG0      -0.307000
     10 C08         15.6050    64.2050    37.5250 cc         1 KG0       0.145900
     11 C09         14.3070    64.5380    38.2080 c3         1 KG0       0.162900
     12 C10         13.5370    63.2750    38.6100 c3         1 KG0      -0.086400
     13 C11         12.1380    63.5750    39.1450 c3         1 KG0      -0.075400
     14 C12         11.3770    62.3030    39.5110 c3         1 KG0      -0.090100
     15 C13         19.8930    64.8260    31.7510 cx         1 KG0      -0.117900
     16 C14         14.6390    66.7150    39.3070 c          1 KG0       0.613100
     17 C15         14.9270    67.4200    40.6400 c5         1 KG0       0.047200
     18 C16         13.6360    68.1060    41.1090 c3         1 KG0      -0.081100
     19 C17         16.0750    68.4430    40.4350 c5         1 KG0       0.034600
     20 C19         16.2850    66.8640    42.3970 ce         1 KG0       0.445900
     21 C20         16.7790    66.1000    43.5550 ce         1 KG0       0.343000
     22 C21         16.1930    64.7680    43.8950 c3         1 KG0      -0.145400
     23 N13         14.5510    65.3790    39.3690 ns         1 KG0      -0.483900
     24 N22         17.7100    66.6830    44.2140 n2         1 KG0      -0.310700
     25 N24         15.3270    66.4560    41.6670 n2         1 KG0      -0.598900
     26 O01         18.4900    62.7400    38.7790 o          1 KG0      -0.505000
     27 O05         17.3570    64.3160    34.4330 os         1 KG0      -0.334100
     28 O25         14.4840    67.3700    38.2780 o          1 KG0      -0.610100
     29 S18         17.0150    68.4340    41.9980 ss         1 KG0      -0.307200
     30 H231        18.8230    66.4890    45.7020 ho         1 KG0       0.473000
     31 H011        17.8920    63.8800    31.7840 hc         1 KG0       0.092700
     32 H031        19.0660    63.1660    36.2300 ha         1 KG0       0.215000
     33 H052        19.0390    66.5390    32.8850 hc         1 KG0       0.076450
     34 H051        18.2880    66.2880    31.2420 hc         1 KG0       0.076450
     35 H061        18.7900    62.9080    33.9270 h1         1 KG0       0.050200
     36 H062        19.4230    64.5080    34.3790 h1         1 KG0       0.050200
     37 H071        15.1590    64.9060    35.5830 ha         1 KG0       0.223000
     38 H093        13.7130    65.1180    37.5020 h1         1 KG0       0.092700
     39 H101        13.4660    62.6320    37.7290 hc         1 KG0       0.058700
     40 H102        14.1170    62.7270    39.3590 hc         1 KG0       0.058700
     41 H112        12.2130    64.2230    40.0220 hc         1 KG0       0.044200
     42 H111        11.5810    64.1360    38.3890 hc         1 KG0       0.044200
     43 H123        10.3780    62.5360    39.8860 hc         1 KG0       0.035367
     44 H122        11.2660    61.6490    38.6420 hc         1 KG0       0.035367
     45 H121        11.9040    61.7410    40.2860 hc         1 KG0       0.035367
     46 H132        20.0440    64.5420    30.7180 hc         1 KG0       0.076450
     47 H131        20.7880    64.8130    32.3590 hc         1 KG0       0.076450
     48 H161        13.8350    68.6750    42.0180 hc         1 KG0       0.056700
     49 H162        13.2750    68.7850    40.3370 hc         1 KG0       0.056700
     50 H163        12.8680    67.3610    41.3200 hc         1 KG0       0.056700
     51 H172        16.7390    68.1480    39.6260 h1         1 KG0       0.094200
     52 H171        15.6980    69.4430    40.2400 h1         1 KG0       0.094200
     53 H211        16.9820    64.0160    43.9420 hc         1 KG0       0.064700
     54 H212        15.7230    64.8070    44.8800 hc         1 KG0       0.064700
     55 H213        15.4540    64.4780    43.1550 hc         1 KG0       0.064700
     56 H133        14.7430    64.9480    40.2630 hn         1 KG0       0.351500
@<TRIPOS>BOND
     1     1    24 1   
     2     1    30 1   
     3     2     4 1   
     4     2    10 1   
     5     3     7 1   
     6     3     8 1   
     7     3    15 1   
     8     3    31 1   
     9     4     5 1   
    10     4    26 2   
    11     5     6 2   
    12     5    32 1   
    13     6     9 1   
    14     6    27 1   
    15     7    15 1   
    16     7    33 1   
    17     7    34 1   
    18     8    27 1   
    19     8    35 1   
    20     8    36 1   
    21     9    10 2   
    22     9    37 1   
    23    10    11 1   
    24    11    12 1   
    25    11    23 1   
    26    11    38 1   
    27    12    13 1   
    28    12    39 1   
    29    12    40 1   
    30    13    14 1   
    31    13    41 1   
    32    13    42 1   
    33    14    43 1   
    34    14    44 1   
    35    14    45 1   
    36    15    46 1   
    37    15    47 1   
    38    16    17 1   
    39    16    23 1   
    40    16    28 2   
    41    17    18 1   
    42    17    19 1   
    43    17    25 1   
    44    18    48 1   
    45    18    49 1   
    46    18    50 1   
    47    19    29 1   
    48    19    51 1   
    49    19    52 1   
    50    20    21 1   
    51    20    25 2   
    52    20    29 1   
    53    21    22 1   
    54    21    24 2   
    55    22    53 1   
    56    22    54 1   
    57    22    55 1   
    58    23    56 1   
@<TRIPOS>SUBSTRUCTURE
     1 KG0         1 TEMP              0 ****  ****    0 ROOT
