@<TRIPOS>MOLECULE
KG0
   56    58     1     0     0
SMALL
No Charge or Current Charge


@<TRIPOS>ATOM
      1 O23         19.6670    66.7730    43.7470 oh         1 KG0      -0.506000
      2 O26         16.2640    63.6900    38.5430 os         1 KG0      -0.349200
      3 C01         19.0620    63.9840    32.7760 cx         1 KG0      -0.142700
      4 C02         17.4990    63.1690    38.2870 c          1 KG0       0.684300
      5 C03         17.9830    63.3180    36.9290 cc         1 KG0      -0.474200
      6 C04         17.2300    63.9500    35.9830 cd         1 KG0       0.254100
      7 C05         19.4900    65.3690    32.3440 cx         1 KG0      -0.117900
      8 C06         18.9300    63.6260    34.2510 c3         1 KG0       0.193600
      9 C07         15.9550    64.4680    36.3420 cd         1 KG0      -0.307000
     10 C08         15.4640    64.3380    37.6290 cc         1 KG0       0.145900
     11 C09         14.1410    64.8510    38.1520 c3         1 KG0       0.162900
     12 C10         13.0960    63.7130    38.2660 c3         1 KG0      -0.086400
     13 C11         11.6790    64.1750    38.6840 c3         1 KG0      -0.075400
     14 C12         10.6550    63.0240    38.7090 c3         1 KG0      -0.090100
     15 C13         20.4200    64.1940    32.1450 cx         1 KG0      -0.117900
     16 C14         13.7410    66.7210    39.8110 c          1 KG0       0.613100
     17 C15         14.2320    67.1150    41.2610 c5         1 KG0       0.047200
     18 C16         13.0350    67.0350    42.2450 c3         1 KG0      -0.081100
     19 C17         14.8600    68.5360    41.1450 c5         1 KG0       0.034600
     20 C19         16.1860    66.9370    42.4880 ce         1 KG0       0.445900
     21 C20         17.5530    66.4350    42.8560 ce         1 KG0       0.343000
     22 C21         17.9220    64.9810    42.5300 c3         1 KG0      -0.145400
     23 N13         14.3240    65.5350    39.4340 ns         1 KG0      -0.483900
     24 N22         18.3680    67.2550    43.4740 n2         1 KG0      -0.310700
     25 N24         15.3410    66.2290    41.7890 n2         1 KG0      -0.598900
     26 O01         18.1530    62.6110    39.1530 o          1 KG0      -0.505000
     27 O05         17.6520    64.1140    34.6910 os         1 KG0      -0.334100
     28 O25         12.9890    67.3590    39.0860 o          1 KG0      -0.610100
     29 S18         15.8770    68.6930    42.6720 ss         1 KG0      -0.307200
     30 H231        20.1270    67.5170    44.2080 ho         1 KG0       0.473000
     31 H011        18.3120    63.4880    32.1640 hc         1 KG0       0.092700
     32 H031        18.9610    62.8960    36.7480 ha         1 KG0       0.215000
     33 H052        19.7430    66.0910    33.1170 hc         1 KG0       0.076450
     34 H051        19.0130    65.7940    31.4640 hc         1 KG0       0.076450
     35 H061        18.9960    62.5360    34.3700 h1         1 KG0       0.050200
     36 H062        19.7430    64.0920    34.8230 h1         1 KG0       0.050200
     37 H071        15.3620    64.9740    35.5880 ha         1 KG0       0.223000
     38 H093        13.7640    65.5810    37.4230 h1         1 KG0       0.092700
     39 H101        13.0290    63.2080    37.2940 hc         1 KG0       0.058700
     40 H102        13.4570    62.9650    38.9830 hc         1 KG0       0.058700
     41 H112        11.7160    64.6300    39.6820 hc         1 KG0       0.044200
     42 H111        11.3290    64.9500    37.9910 hc         1 KG0       0.044200
     43 H123         9.6690    63.3970    39.0120 hc         1 KG0       0.035367
     44 H122        10.5580    62.5680    37.7160 hc         1 KG0       0.035367
     45 H121        10.9610    62.2470    39.4190 hc         1 KG0       0.035367
     46 H132        20.5690    63.8310    31.1300 hc         1 KG0       0.076450
     47 H131        21.2990    64.1310    32.7830 hc         1 KG0       0.076450
     48 H161        13.3220    67.3170    43.2650 hc         1 KG0       0.056700
     49 H162        12.2230    67.7030    41.9340 hc         1 KG0       0.056700
     50 H163        12.6290    66.0170    42.2850 hc         1 KG0       0.056700
     51 H172        15.5190    68.6090    40.2690 h1         1 KG0       0.094200
     52 H171        14.1100    69.3350    41.0800 h1         1 KG0       0.094200
     53 H211        18.7660    64.9410    41.8320 hc         1 KG0       0.064700
     54 H212        18.2130    64.4400    43.4370 hc         1 KG0       0.064700
     55 H213        17.1030    64.4150    42.0740 hc         1 KG0       0.064700
     56 H133        14.9530    65.1310    40.1190 hn         1 KG0       0.351500
@<TRIPOS>BOND
     1     1    24 1   
     2     1    30 1   
     3     2     4 1   
     4     2    10 1   
     5     3     7 1   
     6     3     8 1   
     7     3    15 1   
     8     3    31 1   
     9     4     5 1   
    10     4    26 2   
    11     5     6 2   
    12     5    32 1   
    13     6     9 1   
    14     6    27 1   
    15     7    15 1   
    16     7    33 1   
    17     7    34 1   
    18     8    27 1   
    19     8    35 1   
    20     8    36 1   
    21     9    10 2   
    22     9    37 1   
    23    10    11 1   
    24    11    12 1   
    25    11    23 1   
    26    11    38 1   
    27    12    13 1   
    28    12    39 1   
    29    12    40 1   
    30    13    14 1   
    31    13    41 1   
    32    13    42 1   
    33    14    43 1   
    34    14    44 1   
    35    14    45 1   
    36    15    46 1   
    37    15    47 1   
    38    16    17 1   
    39    16    23 1   
    40    16    28 2   
    41    17    18 1   
    42    17    19 1   
    43    17    25 1   
    44    18    48 1   
    45    18    49 1   
    46    18    50 1   
    47    19    29 1   
    48    19    51 1   
    49    19    52 1   
    50    20    21 1   
    51    20    25 2   
    52    20    29 1   
    53    21    22 1   
    54    21    24 2   
    55    22    53 1   
    56    22    54 1   
    57    22    55 1   
    58    23    56 1   
@<TRIPOS>SUBSTRUCTURE
     1 KG0         1 TEMP              0 ****  ****    0 ROOT
