@<TRIPOS>MOLECULE
KG1
   28    28     1     0     0
SMALL
No Charge or Current Charge


@<TRIPOS>ATOM
      1 O4          -2.9810    -0.8020     0.2110 oh         1 KG1      -0.699000
      2 C4          -1.8770    -0.6360    -0.7160 c6         1 KG1       0.147300
      3 C5          -0.6330    -1.4860    -0.2920 c6         1 KG1       0.133300
      4 C6          -0.9260    -3.0040    -0.1730 c3         1 KG1      -0.092100
      5 O5          -0.1360    -1.0490     0.9960 os         1 KG1      -0.460000
      6 C3          -1.4110     0.8560    -0.7790 c6         1 KG1       0.187300
      7 O3          -2.4670     1.7480    -1.1850 oh         1 KG1      -0.644000
      8 C2          -0.8340     1.3080     0.5970 c6         1 KG1       0.116300
      9 O2          -0.4120     2.7000     0.5210 oh         1 KG1      -0.709000
     10 C1           0.3170     0.3280     1.0340 c6         1 KG1       0.356300
     11 O1           1.4880     0.4770     0.2000 os         1 KG1      -0.362100
     12 CM           2.6060    -0.2600     0.4940 c2         1 KG1      -0.045000
     13 C7           3.6900    -0.1610    -0.2490 c1         1 KG1      -0.098800
     14 C8           4.7650    -0.0530    -1.0050 c2         1 KG1      -0.289100
     15 H1          -3.2790    -1.7370     0.1400 ho         1 KG1       0.503000
     16 H2          -2.1830    -0.9460    -1.7270 h1         1 KG1       0.049700
     17 H3           0.1600    -1.3610    -1.0450 h1         1 KG1       0.057700
     18 H4          -1.3360    -3.4010    -1.1100 hc         1 KG1       0.047033
     19 H5          -0.0060    -3.5600     0.0440 hc         1 KG1       0.047033
     20 H6          -1.6410    -3.2210     0.6290 hc         1 KG1       0.047033
     21 H7          -0.5950     0.9160    -1.5160 h1         1 KG1       0.057700
     22 H8          -2.1830     2.6250    -0.8400 ho         1 KG1       0.458000
     23 H9          -1.6330     1.2100     1.3480 h1         1 KG1       0.075700
     24 H10          0.1080     2.9000     1.3350 ho         1 KG1       0.509000
     25 H11          0.5980     0.5720     2.0700 h2         1 KG1       0.069700
     26 H12          2.5220    -0.9430     1.3430 h4         1 KG1       0.187000
     27 H14          5.6480    -0.6680    -0.8260 ha         1 KG1       0.175000
     28 H13          4.8050     0.6540    -1.8340 ha         1 KG1       0.175000
@<TRIPOS>BOND
     1     1     2 1   
     2     1    15 1   
     3     2     3 1   
     4     2     6 1   
     5     2    16 1   
     6     3     4 1   
     7     3     5 1   
     8     3    17 1   
     9     4    18 1   
    10     4    19 1   
    11     4    20 1   
    12     5    10 1   
    13     6     7 1   
    14     6     8 1   
    15     6    21 1   
    16     7    22 1   
    17     8     9 1   
    18     8    10 1   
    19     8    23 1   
    20     9    24 1   
    21    10    11 1   
    22    10    25 1   
    23    11    12 1   
    24    12    13 2   
    25    12    26 1   
    26    13    14 2   
    27    14    27 1   
    28    14    28 1   
@<TRIPOS>SUBSTRUCTURE
     1 KG1         1 TEMP              0 ****  ****    0 ROOT
