@<TRIPOS>MOLECULE
KG1
   28    28     1     0     0
SMALL
abcg2


@<TRIPOS>ATOM
      1 O4          -2.8160    -0.8390     0.0980 oh         1 KG1      -0.699000
      2 C4          -1.7090    -0.6210    -0.7430 c6         1 KG1       0.147300
      3 C5          -0.4740    -1.4160    -0.3100 c6         1 KG1       0.133300
      4 C6          -0.7240    -2.9070    -0.2300 c3         1 KG1      -0.092100
      5 O5          -0.0240    -0.9950     0.9750 os         1 KG1      -0.460000
      6 C3          -1.3720     0.8640    -0.7130 c6         1 KG1       0.187300
      7 O3          -2.5120     1.6000    -1.0730 oh         1 KG1      -0.644000
      8 C2          -0.8610     1.2520     0.6710 c6         1 KG1       0.116300
      9 O2          -0.4930     2.6070     0.6380 oh         1 KG1      -0.709000
     10 C1           0.3080     0.3500     1.0770 c6         1 KG1       0.356300
     11 O1           1.4080     0.6810     0.2620 os         1 KG1      -0.362100
     12 CM           2.5780     0.0810     0.6210 c2         1 KG1      -0.045000
     13 C7           3.5030    -0.2080    -0.2530 c1         1 KG1      -0.098800
     14 C8           4.4500    -0.4800    -1.1030 c2         1 KG1      -0.289100
     15 H1          -3.1440    -1.7310    -0.0500 ho         1 KG1       0.503000
     16 H2          -1.9360    -0.9050    -1.7800 h1         1 KG1       0.049700
     17 H3           0.3080    -1.2370    -1.0600 h1         1 KG1       0.057700
     18 H4          -1.0710    -3.2820    -1.1930 hc         1 KG1       0.047033
     19 H5           0.1940    -3.4390     0.0180 hc         1 KG1       0.047033
     20 H6          -1.4700    -3.1600     0.5250 hc         1 KG1       0.047033
     21 H7          -0.5650     1.0220    -1.4430 h1         1 KG1       0.057700
     22 H8          -2.2730     2.5330    -1.0700 ho         1 KG1       0.458000
     23 H9          -1.6610     1.0780     1.4010 h1         1 KG1       0.075700
     24 H10         -0.4940     2.9520     1.5360 ho         1 KG1       0.509000
     25 H11          0.5670     0.5130     2.1320 h2         1 KG1       0.069700
     26 H12          2.7310    -0.1120     1.6810 h4         1 KG1       0.187000
     27 H14          4.5260    -1.4520    -1.5790 ha         1 KG1       0.175000
     28 H13          5.2020     0.2540    -1.3730 ha         1 KG1       0.175000
@<TRIPOS>BOND
     1     1     2 1   
     2     1    15 1   
     3     2     3 1   
     4     2     6 1   
     5     2    16 1   
     6     3     4 1   
     7     3     5 1   
     8     3    17 1   
     9     4    18 1   
    10     4    19 1   
    11     4    20 1   
    12     5    10 1   
    13     6     7 1   
    14     6     8 1   
    15     6    21 1   
    16     7    22 1   
    17     8     9 1   
    18     8    10 1   
    19     8    23 1   
    20     9    24 1   
    21    10    11 1   
    22    10    25 1   
    23    11    12 1   
    24    12    13 2   
    25    12    26 1   
    26    13    14 2   
    27    14    27 1   
    28    14    28 1   
@<TRIPOS>SUBSTRUCTURE
     1 KG1         1 TEMP              0 ****  ****    0 ROOT
