@<TRIPOS>MOLECULE
KG2
   52    55     1     0     0
SMALL
abcg2


@<TRIPOS>ATOM
      1 C4          23.1350   -20.5850   -10.5640 c6         1 KG2      -0.096700
      2 C14         15.7870   -21.9110    -8.9630 ca         1 KG2      -0.110750
      3 C5          24.4890   -19.8860   -10.4490 c6         1 KG2      -0.094400
      4 C6          25.0180   -19.5860   -11.8540 c6         1 KG2       0.106100
      5 C11         17.0800   -19.8050   -10.2110 ca         1 KG2      -0.088000
      6 C7          22.1450   -19.5490   -11.0870 c6         1 KG2       0.166300
      7 C9          18.8650   -21.2890   -11.1530 c3         1 KG2       0.260600
      8 C10         17.6130   -21.0910   -10.3120 ca         1 KG2      -0.117300
      9 C12         15.9210   -19.5760    -9.4890 ca         1 KG2      -0.110750
     10 C13         15.2680   -20.6310    -8.8610 ca         1 KG2      -0.088000
     11 N1          23.8920   -19.6920   -12.8450 n4         1 KG2      -0.505000
     12 C3          23.2650   -21.7250   -11.5730 c6         1 KG2      -0.094400
     13 C1          24.3230   -19.1750   -14.1660 c3         1 KG2       0.077900
     14 C2          23.4810   -21.1330   -12.9670 c6         1 KG2       0.106100
     15 O1          20.9130   -20.1670   -11.4760 os         1 KG2      -0.472100
     16 O2          20.1180   -20.1750    -9.3840 o          1 KG2      -0.435000
     17 O3          18.5440   -20.8130   -12.4320 oh         1 KG2      -0.621000
     18 C15         16.9540   -22.1400    -9.6870 ca         1 KG2      -0.088000
     19 C16         19.3440   -22.7410   -11.1850 ca         1 KG2      -0.117300
     20 C17         20.0120   -23.3100   -10.1000 ca         1 KG2      -0.088000
     21 C18         20.4400   -24.6280   -10.1460 ca         1 KG2      -0.110750
     22 C19         20.2030   -25.4020   -11.2740 ca         1 KG2      -0.088000
     23 C20         19.5290   -24.8460   -12.3510 ca         1 KG2      -0.110750
     24 C21         19.1020   -23.5250   -12.3080 ca         1 KG2      -0.088000
     25 C22         22.7360   -18.8910   -12.3350 c6         1 KG2       0.094600
     26 H1          22.8200   -20.9600    -9.5900 hc         1 KG2       0.121700
     27 H3          25.1950   -20.5310    -9.9270 hc         1 KG2       0.090950
     28 H4          24.4030   -18.9680    -9.8660 hc         1 KG2       0.090950
     29 H5          25.7840   -20.2910   -12.1730 hx         1 KG2       0.094450
     30 H6          25.4240   -18.5790   -11.9340 hx         1 KG2       0.094450
     31 H7          17.5710   -18.9700   -10.6950 ha         1 KG2       0.122000
     32 H8          21.9500   -18.7830   -10.3350 h1         1 KG2       0.107700
     33 H9          15.5240   -18.5710    -9.4160 ha         1 KG2       0.123500
     34 H10         14.3620   -20.4530    -8.2970 ha         1 KG2       0.125500
     35 H11         22.3840   -22.3640   -11.5790 hc         1 KG2       0.090950
     36 H12         24.1090   -22.3550   -11.2900 hc         1 KG2       0.090950
     37 H13         24.5460   -18.1140   -14.0790 hx         1 KG2       0.096367
     38 H14         25.2130   -19.7140   -14.4810 hx         1 KG2       0.096367
     39 H15         23.5240   -19.3280   -14.8860 hx         1 KG2       0.096367
     40 H16         22.5760   -21.1480   -13.5730 hx         1 KG2       0.094450
     41 H17         24.2690   -21.6460   -13.5160 hx         1 KG2       0.094450
     42 H18         19.3200   -20.8630   -13.0050 ho         1 KG2       0.447000
     43 H19         17.3370   -23.1490    -9.7560 ha         1 KG2       0.122000
     44 H20         20.1980   -22.7360    -9.2020 ha         1 KG2       0.122000
     45 H21         20.9580   -25.0500    -9.2950 ha         1 KG2       0.123500
     46 H22         20.5390   -26.4300   -11.3110 ha         1 KG2       0.125500
     47 H23         19.3330   -25.4410   -13.2340 ha         1 KG2       0.123500
     48 H24         18.5720   -23.1180   -13.1580 ha         1 KG2       0.122000
     49 H25         23.1120   -17.8930   -12.1130 hx         1 KG2       0.105700
     50 H26         22.0000   -18.8070   -13.1340 hx         1 KG2       0.105700
     51 C8          20.0180   -20.4660   -10.5440 c          1 KG2       0.563100
     52 H2          15.2860   -22.7420    -8.4840 ha         1 KG2       0.123500
@<TRIPOS>BOND
     1     1     3 1   
     2     1     6 1   
     3     1    12 1   
     4     1    26 1   
     5     2    10 ar  
     6     2    18 ar  
     7     2    52 1   
     8     3     4 1   
     9     3    27 1   
    10     3    28 1   
    11     4    11 1   
    12     4    29 1   
    13     4    30 1   
    14     5     8 ar  
    15     5     9 ar  
    16     5    31 1   
    17     6    15 1   
    18     6    25 1   
    19     6    32 1   
    20     7     8 1   
    21     7    17 1   
    22     7    19 1   
    23     7    51 1   
    24     8    18 ar  
    25     9    10 ar  
    26     9    33 1   
    27    10    34 1   
    28    11    13 1   
    29    11    14 1   
    30    11    25 1   
    31    12    14 1   
    32    12    35 1   
    33    12    36 1   
    34    13    37 1   
    35    13    38 1   
    36    13    39 1   
    37    14    40 1   
    38    14    41 1   
    39    15    51 1   
    40    16    51 2   
    41    17    42 1   
    42    18    43 1   
    43    19    20 ar  
    44    19    24 ar  
    45    20    21 ar  
    46    20    44 1   
    47    21    22 ar  
    48    21    45 1   
    49    22    23 ar  
    50    22    46 1   
    51    23    24 ar  
    52    23    47 1   
    53    24    48 1   
    54    25    49 1   
    55    25    50 1   
@<TRIPOS>SUBSTRUCTURE
     1 KG2         1 TEMP              0 ****  ****    0 ROOT
