@<TRIPOS>MOLECULE
KG2
   52    55     1     0     0
SMALL
No Charge or Current Charge


@<TRIPOS>ATOM
      1 C4          23.1470   -20.5330   -10.5840 c6         1 KG2      -0.096700
      2 C14         16.0520   -21.7970    -8.4510 ca         1 KG2      -0.110750
      3 C5          24.4640   -19.7570   -10.2730 c6         1 KG2      -0.094400
      4 C6          25.0900   -19.2090   -11.5870 c6         1 KG2       0.106100
      5 C11         16.7540   -19.9310   -10.4250 ca         1 KG2      -0.088000
      6 C7          22.1430   -19.5510   -11.2750 c6         1 KG2       0.166300
      7 C9          18.7690   -21.3380   -11.1780 c3         1 KG2       0.260600
      8 C10         17.5300   -21.1050   -10.2810 ca         1 KG2      -0.117300
      9 C12         15.6380   -19.7000    -9.6020 ca         1 KG2      -0.110750
     10 C13         15.2840   -20.6340    -8.6160 ca         1 KG2      -0.088000
     11 N1          24.2200   -19.5740   -12.8230 n4         1 KG2      -0.505000
     12 C3          23.4910   -21.6950   -11.5680 c6         1 KG2      -0.094400
     13 C1          24.8310   -19.0200   -14.1150 c3         1 KG2       0.077900
     14 C2          24.1030   -21.1240   -12.8780 c6         1 KG2       0.106100
     15 O1          20.9000   -20.2120   -11.5910 os         1 KG2      -0.472100
     16 O2          20.1400   -20.2280    -9.4240 o          1 KG2      -0.435000
     17 O3          18.4760   -20.8520   -12.5090 oh         1 KG2      -0.621000
     18 C15         17.1690   -22.0300    -9.2720 ca         1 KG2      -0.088000
     19 C16         19.0970   -22.8460   -11.3080 ca         1 KG2      -0.117300
     20 C17         20.1790   -23.4450   -10.6150 ca         1 KG2      -0.088000
     21 C18         20.4410   -24.8190   -10.7470 ca         1 KG2      -0.110750
     22 C19         19.6260   -25.6210   -11.5600 ca         1 KG2      -0.088000
     23 C20         18.5400   -25.0470   -12.2380 ca         1 KG2      -0.110750
     24 C21         18.2750   -23.6720   -12.1100 ca         1 KG2      -0.088000
     25 C22         22.7890   -19.0010   -12.5820 c6         1 KG2       0.094600
     26 H1          22.7210   -20.9300    -9.6520 hc         1 KG2       0.121700
     27 H3          25.1850   -20.4140    -9.7670 hc         1 KG2       0.090950
     28 H4          24.2660   -18.9260    -9.5820 hc         1 KG2       0.090950
     29 H5          26.0850   -19.6300   -11.7590 hx         1 KG2       0.094450
     30 H6          25.1770   -18.1180   -11.5630 hx         1 KG2       0.094450
     31 H7          17.0140   -19.1880   -11.1760 ha         1 KG2       0.122000
     32 H8          21.9360   -18.7000   -10.6090 h1         1 KG2       0.107700
     33 H9          15.0490   -18.7940    -9.7280 ha         1 KG2       0.123500
     34 H10         14.4210   -20.4540    -7.9790 ha         1 KG2       0.125500
     35 H11         22.5940   -22.2820   -11.8080 hc         1 KG2       0.090950
     36 H12         24.2000   -22.3930   -11.1030 hc         1 KG2       0.090950
     37 H13         24.8990   -17.9320   -14.0430 hx         1 KG2       0.096367
     38 H14         25.8280   -19.4420   -14.2510 hx         1 KG2       0.096367
     39 H15         24.1970   -19.2940   -14.9600 hx         1 KG2       0.096367
     40 H16         23.4820   -21.3680   -13.7460 hx         1 KG2       0.094450
     41 H17         25.1090   -21.5190   -13.0530 hx         1 KG2       0.094450
     42 H18         19.3530   -20.7200   -12.9300 ho         1 KG2       0.447000
     43 H19         17.7500   -22.9350    -9.1110 ha         1 KG2       0.122000
     44 H20         20.8240   -22.8630    -9.9620 ha         1 KG2       0.122000
     45 H21         21.2770   -25.2650   -10.2120 ha         1 KG2       0.123500
     46 H22         19.8300   -26.6850   -11.6590 ha         1 KG2       0.125500
     47 H23         17.9000   -25.6670   -12.8620 ha         1 KG2       0.123500
     48 H24         17.4220   -23.2490   -12.6360 ha         1 KG2       0.122000
     49 H25         22.8760   -17.9120   -12.5470 hx         1 KG2       0.105700
     50 H26         22.1840   -19.2690   -13.4530 hx         1 KG2       0.105700
     51 C8          19.9940   -20.5340   -10.6020 c          1 KG2       0.563100
     52 H2          15.7840   -22.5190    -7.6820 ha         1 KG2       0.123500
@<TRIPOS>BOND
     1     1     3 1   
     2     1     6 1   
     3     1    12 1   
     4     1    26 1   
     5     2    10 ar  
     6     2    18 ar  
     7     2    52 1   
     8     3     4 1   
     9     3    27 1   
    10     3    28 1   
    11     4    11 1   
    12     4    29 1   
    13     4    30 1   
    14     5     8 ar  
    15     5     9 ar  
    16     5    31 1   
    17     6    15 1   
    18     6    25 1   
    19     6    32 1   
    20     7     8 1   
    21     7    17 1   
    22     7    19 1   
    23     7    51 1   
    24     8    18 ar  
    25     9    10 ar  
    26     9    33 1   
    27    10    34 1   
    28    11    13 1   
    29    11    14 1   
    30    11    25 1   
    31    12    14 1   
    32    12    35 1   
    33    12    36 1   
    34    13    37 1   
    35    13    38 1   
    36    13    39 1   
    37    14    40 1   
    38    14    41 1   
    39    15    51 1   
    40    16    51 2   
    41    17    42 1   
    42    18    43 1   
    43    19    20 ar  
    44    19    24 ar  
    45    20    21 ar  
    46    20    44 1   
    47    21    22 ar  
    48    21    45 1   
    49    22    23 ar  
    50    22    46 1   
    51    23    24 ar  
    52    23    47 1   
    53    24    48 1   
    54    25    49 1   
    55    25    50 1   
@<TRIPOS>SUBSTRUCTURE
     1 KG2         1 TEMP              0 ****  ****    0 ROOT
