@<TRIPOS>MOLECULE
KG3
   52    55     1     0     0
SMALL
No Charge or Current Charge


@<TRIPOS>ATOM
      1 C4          14.9310    35.3300   -15.9760 ca         1 KG3       0.333000
      2 C6          15.5170    38.0050   -16.4980 ca         1 KG3       0.352300
      3 C7          15.7940    39.4580   -16.7470 cx         1 KG3      -0.193000
      4 C10         17.1630    40.0600   -16.5110 cx         1 KG3      -0.110400
      5 C13         11.2640    38.8600   -12.4530 ca         1 KG3      -0.095300
      6 C20         16.2580    37.0000   -17.1410 ca         1 KG3      -0.093000
      7 C22         16.6710    30.4110   -15.9590 ca         1 KG3       0.085900
      8 C24         14.6700    31.5310   -15.8490 ca         1 KG3       0.061400
      9 C26         10.6120    36.5070   -12.4500 ca         1 KG3      -0.103000
     10 C28         14.5650    41.3350   -10.1860 c3         1 KG3       0.093300
     11 C1          14.2000    36.4150   -15.3880 ca         1 KG3       0.221500
     12 N2          14.5030    37.7280   -15.6530 nb         1 KG3      -0.656000
     13 C3          13.0250    36.1410   -14.4430 c          1 KG3       0.522600
     14 N5          12.5390    37.2860   -13.8220 ns         1 KG3      -0.131000
     15 N8          14.6350    33.9760   -15.7070 nu         1 KG3      -0.976000
     16 C9          16.0090    40.4430   -15.6160 cx         1 KG3      -0.110400
     17 C11         11.4700    37.5320   -12.9110 ca         1 KG3      -0.009000
     18 C12         13.4350    40.0990   -12.0580 c          1 KG3       0.595100
     19 O15         12.5450    35.0200   -14.2670 o          1 KG3      -0.634100
     20 N16         17.4280    31.5270   -15.9080 nb         1 KG3      -0.149500
     21 N17         15.3230    30.3520   -15.9290 nb         1 KG3      -0.149500
     22 C18         15.9610    35.6500   -16.8820 ca         1 KG3      -0.155000
     23 C19         15.3530    32.7670   -15.8110 ca         1 KG3       0.210000
     24 O21         14.3750    39.3330   -12.2110 o          1 KG3      -0.609100
     25 N23         13.4500    41.0900   -11.1030 ns         1 KG3      -0.505900
     26 C25         16.7670    32.7020   -15.8310 ca         1 KG3       0.061400
     27 C27         10.2180    39.1310   -11.5460 ca         1 KG3      -0.092000
     28 C29          9.5730    36.7930   -11.5490 ca         1 KG3      -0.092000
     29 C30          9.3770    38.1040   -11.0970 ca         1 KG3      -0.119000
     30 H1          15.2460    39.8270   -17.6100 hc         1 KG3       0.081700
     31 H2          17.9380    39.4230   -16.0890 hc         1 KG3       0.077950
     32 H3          17.5220    40.8010   -17.2220 hc         1 KG3       0.077950
     33 H4          17.0500    37.2680   -17.8350 ha         1 KG3       0.126000
     34 H5          17.2010    29.4620   -16.0230 h5         1 KG3       0.053100
     35 H6          13.5820    31.4840   -15.8210 h4         1 KG3       0.031600
     36 H7          10.7300    35.4790   -12.7760 ha         1 KG3       0.131000
     37 H8          14.3230    42.1820    -9.5310 h1         1 KG3       0.042033
     38 H9          14.7410    40.4420    -9.5720 h1         1 KG3       0.042033
     39 H10         15.4710    41.5680   -10.7590 h1         1 KG3       0.042033
     40 H11         13.0630    38.1160   -14.0710 hn         1 KG3       0.204000
     41 H12         13.7200    33.8800   -15.2360 hn         1 KG3       0.548000
     42 H13         15.5900    41.4400   -15.7250 hc         1 KG3       0.077950
     43 H14         16.0110    40.0600   -14.5980 hc         1 KG3       0.077950
     44 H15         11.6010    40.9620   -12.8050 hc         1 KG3       0.066200
     45 H16         12.4370    39.9060   -13.9590 hc         1 KG3       0.066200
     46 H17         16.5140    34.8720   -17.3990 ha         1 KG3       0.131000
     47 H18         12.6270    41.6790   -11.0360 hn         1 KG3       0.314500
     48 H19         17.3850    33.5950   -15.7600 h4         1 KG3       0.031600
     49 H20         10.0560    40.1450   -11.1850 ha         1 KG3       0.108000
     50 H21          8.9200    35.9950   -11.2020 ha         1 KG3       0.116000
     51 H22          8.5730    38.3250   -10.3980 ha         1 KG3       0.115000
     52 C14         12.1580    40.0230   -12.9060 c3         1 KG3      -0.113100
@<TRIPOS>BOND
     1     1    11 ar  
     2     1    15 1   
     3     1    22 ar  
     4     2     3 1   
     5     2     6 ar  
     6     2    12 ar  
     7     3     4 1   
     8     3    16 1   
     9     3    30 1   
    10     4    16 1   
    11     4    31 1   
    12     4    32 1   
    13     5    17 ar  
    14     5    27 ar  
    15     5    52 1   
    16     6    22 ar  
    17     6    33 1   
    18     7    20 ar  
    19     7    21 ar  
    20     7    34 1   
    21     8    21 ar  
    22     8    23 ar  
    23     8    35 1   
    24     9    17 ar  
    25     9    28 ar  
    26     9    36 1   
    27    10    25 1   
    28    10    37 1   
    29    10    38 1   
    30    10    39 1   
    31    11    12 ar  
    32    11    13 1   
    33    13    14 1   
    34    13    19 2   
    35    14    17 1   
    36    14    40 1   
    37    15    23 1   
    38    15    41 1   
    39    16    42 1   
    40    16    43 1   
    41    18    24 2   
    42    18    25 1   
    43    18    52 1   
    44    20    26 ar  
    45    22    46 1   
    46    23    26 ar  
    47    25    47 1   
    48    26    48 1   
    49    27    29 ar  
    50    27    49 1   
    51    28    29 ar  
    52    28    50 1   
    53    29    51 1   
    54    44    52 1   
    55    45    52 1   
@<TRIPOS>SUBSTRUCTURE
     1 KG3         1 TEMP              0 ****  ****    0 ROOT
