@<TRIPOS>MOLECULE
KG3
   52    55     1     0     0
SMALL
abcg2


@<TRIPOS>ATOM
      1 C4          15.0220    35.3240   -15.7810 ca         1 KG3       0.333000
      2 C6          16.2150    37.8250   -15.5820 ca         1 KG3       0.352300
      3 C7          16.8300    39.1650   -15.4600 cx         1 KG3      -0.193000
      4 C10         16.8630    39.8740   -14.1350 cx         1 KG3      -0.110400
      5 C13         11.4390    38.4000   -12.1450 ca         1 KG3      -0.095300
      6 C20         16.6750    36.9060   -16.5320 ca         1 KG3      -0.093000
      7 C22         15.5650    30.6210   -17.5340 ca         1 KG3       0.085900
      8 C24         13.9060    32.0330   -16.9510 ca         1 KG3       0.061400
      9 C26         11.8760    36.1680   -11.3170 ca         1 KG3      -0.103000
     10 C28         13.9150    42.6070   -12.5720 c3         1 KG3       0.093300
     11 C1          14.6110    36.3190   -14.8740 ca         1 KG3       0.221500
     12 N2          15.2040    37.5080   -14.7990 nb         1 KG3      -0.656000
     13 C3          13.4450    36.1190   -13.9580 c          1 KG3       0.522600
     14 N5          13.2690    37.1140   -13.0690 ns         1 KG3      -0.131000
     15 N8          14.3810    34.1130   -15.8510 nu         1 KG3      -0.976000
     16 C9          15.9640    40.3720   -15.2120 cx         1 KG3      -0.110400
     17 C11         12.1890    37.2190   -12.1740 ca         1 KG3      -0.009000
     18 C12         12.9100    40.3860   -12.5980 c          1 KG3       0.595100
     19 O15         12.7130    35.1360   -14.0330 o          1 KG3      -0.634100
     20 N16         16.5260    31.4010   -17.0670 nb         1 KG3      -0.149500
     21 N17         14.2670    30.8810   -17.4870 nb         1 KG3      -0.149500
     22 C18         16.0810    35.6720   -16.6340 ca         1 KG3      -0.155000
     23 C19         14.8290    32.9470   -16.4390 ca         1 KG3       0.210000
     24 O21         13.8730    39.8810   -12.0310 o          1 KG3      -0.609100
     25 N23         12.8400    41.6910   -12.8770 ns         1 KG3      -0.505900
     26 C25         16.1650    32.5490   -16.5130 ca         1 KG3       0.061400
     27 C27         10.3930    38.5000   -11.2320 ca         1 KG3      -0.092000
     28 C29         10.8190    36.2820   -10.4280 ca         1 KG3      -0.092000
     29 C30         10.0750    37.4530   -10.3810 ca         1 KG3      -0.119000
     30 H1          17.6840    39.3160   -16.1100 hc         1 KG3       0.081700
     31 H2          16.4070    39.3700   -13.2930 hc         1 KG3       0.077950
     32 H3          17.7530    40.4430   -13.8970 hc         1 KG3       0.077950
     33 H4          17.4860    37.1690   -17.1980 ha         1 KG3       0.126000
     34 H5          15.8660    29.6840   -17.9880 h5         1 KG3       0.053100
     35 H6          12.8430    32.2550   -16.9080 h4         1 KG3       0.031600
     36 H7          12.4720    35.2660   -11.3310 ha         1 KG3       0.131000
     37 H8          13.6260    43.5990   -12.9060 h1         1 KG3       0.042033
     38 H9          14.1150    42.6500   -11.5010 h1         1 KG3       0.042033
     39 H10         14.8360    42.3260   -13.0820 h1         1 KG3       0.042033
     40 H11         13.9010    37.9020   -13.1450 hn         1 KG3       0.204000
     41 H12         13.5010    34.0790   -15.3470 hn         1 KG3       0.548000
     42 H13         16.2250    41.2870   -15.7270 hc         1 KG3       0.077950
     43 H14         14.8990    40.2000   -15.1060 hc         1 KG3       0.077950
     44 H15         10.8430    40.1620   -13.1900 hc         1 KG3       0.066200
     45 H16         11.9880    39.1760   -14.0690 hc         1 KG3       0.066200
     46 H17         16.4240    34.9860   -17.3960 ha         1 KG3       0.131000
     47 H18         12.0170    42.0530   -13.3290 hn         1 KG3       0.314500
     48 H19         16.9600    33.1620   -16.1040 h4         1 KG3       0.031600
     49 H20          9.8100    39.4120   -11.2030 ha         1 KG3       0.108000
     50 H21         10.5850    35.4590    -9.7650 ha         1 KG3       0.116000
     51 H22          9.2520    37.5510    -9.6860 ha         1 KG3       0.115000
     52 C14         11.7340    39.5460   -13.0690 c3         1 KG3      -0.113100
@<TRIPOS>BOND
     1     1    11 ar  
     2     1    15 1   
     3     1    22 ar  
     4     2     3 1   
     5     2     6 ar  
     6     2    12 ar  
     7     3     4 1   
     8     3    16 1   
     9     3    30 1   
    10     4    16 1   
    11     4    31 1   
    12     4    32 1   
    13     5    17 ar  
    14     5    27 ar  
    15     5    52 1   
    16     6    22 ar  
    17     6    33 1   
    18     7    20 ar  
    19     7    21 ar  
    20     7    34 1   
    21     8    21 ar  
    22     8    23 ar  
    23     8    35 1   
    24     9    17 ar  
    25     9    28 ar  
    26     9    36 1   
    27    10    25 1   
    28    10    37 1   
    29    10    38 1   
    30    10    39 1   
    31    11    12 ar  
    32    11    13 1   
    33    13    14 1   
    34    13    19 2   
    35    14    17 1   
    36    14    40 1   
    37    15    23 1   
    38    15    41 1   
    39    16    42 1   
    40    16    43 1   
    41    18    24 2   
    42    18    25 1   
    43    18    52 1   
    44    20    26 ar  
    45    22    46 1   
    46    23    26 ar  
    47    25    47 1   
    48    26    48 1   
    49    27    29 ar  
    50    27    49 1   
    51    28    29 ar  
    52    28    50 1   
    53    29    51 1   
    54    44    52 1   
    55    45    52 1   
@<TRIPOS>SUBSTRUCTURE
     1 KG3         1 TEMP              0 ****  ****    0 ROOT
