@<TRIPOS>MOLECULE
KG4
   38    40     1     0     0
SMALL
No Charge or Current Charge


@<TRIPOS>ATOM
      1 O1A         -3.8740     0.1810     1.7340 o          1 KG4      -0.854000
      2 PA          -3.6350    -0.0730     0.2800 p5         1 KG4       1.428800
      3 O2A         -4.8980    -0.1340    -0.5190 o          1 KG4      -0.854000
      4 O3A         -2.5500     0.8960    -0.3690 os         1 KG4      -0.656500
      5 CB          -2.7400     2.2090    -0.4900 c          1 KG4       0.868100
      6 O2B         -3.7580     2.7460    -0.0890 o          1 KG4      -0.750000
      7 O1B         -1.8320     2.8310    -1.0110 o          1 KG4      -0.750000
      8 O5          -2.8270    -1.4550     0.0880 os         1 KG4      -0.559400
      9 C5          -1.6930    -1.7350     0.9220 c3         1 KG4       0.231600
     10 C4          -0.5140    -2.2260     0.0390 c5         1 KG4       0.153300
     11 C3           0.7740    -2.5920     0.8370 c5         1 KG4       0.083300
     12 O3           0.7160    -3.8880     1.4600 oh         1 KG4      -0.697000
     13 C2           1.8160    -2.5580    -0.3120 c5         1 KG4       0.090300
     14 O2           1.7070    -3.7410    -1.1220 oh         1 KG4      -0.710000
     15 C1           1.3550    -1.2430    -1.0390 c5         1 KG4       0.315300
     16 O4          -0.0880    -1.2040    -0.9010 os         1 KG4      -0.403000
     17 N9           1.9140    -0.0010    -0.5000 na         1 KG4      -0.300300
     18 C9           3.2310     0.3700    -0.4130 ca         1 KG4       0.099500
     19 C7           3.2680     1.6140     0.1650 ca         1 KG4      -0.087600
     20 N7           1.9990     2.1010     0.4570 nc         1 KG4      -0.582100
     21 C8           1.2050     1.0990     0.0260 cd         1 KG4       0.454700
     22 N3           4.3550    -0.2730    -0.7900 nb         1 KG4      -0.210000
     23 C10          5.5190     0.3790    -0.5610 ca         1 KG4       0.153900
     24 N1           5.6640     1.6010     0.0040 nb         1 KG4      -0.324000
     25 C6           4.5290     2.2160     0.3690 ca         1 KG4       0.437900
     26 N6           4.6750     3.4470     0.9290 nv         1 KG4      -1.076900
     27 H3          -1.3680    -0.8470     1.4810 h1         1 KG4       0.015700
     28 H4          -1.9450    -2.5180     1.6480 h1         1 KG4       0.015700
     29 H5          -0.8630    -3.0940    -0.5370 h1         1 KG4       0.093700
     30 H6           0.9920    -1.8140     1.5840 h1         1 KG4       0.053700
     31 H7           1.3400    -3.8790     2.2250 ho         1 KG4       0.494000
     32 H8           2.8370    -2.4610     0.0810 h1         1 KG4       0.057700
     33 H9           1.3670    -4.4300    -0.4980 ho         1 KG4       0.518000
     34 H10          1.6390    -1.2650    -2.0990 h2         1 KG4       0.104700
     35 H11          0.1220     1.0980     0.0720 h5         1 KG4       0.117800
     36 H12          6.4320    -0.1320    -0.8620 h5         1 KG4       0.029100
     37 H13          3.8340     4.0140     1.0040 hn         1 KG4       0.498000
     38 H14          5.5490     3.9440     0.7750 hn         1 KG4       0.498000
@<TRIPOS>BOND
     1     1     2 1   
     2     2     3 1   
     3     2     4 1   
     4     2     8 1   
     5     4     5 1   
     6     5     6 1   
     7     5     7 1   
     8     8     9 1   
     9     9    10 1   
    10     9    27 1   
    11     9    28 1   
    12    10    11 1   
    13    10    16 1   
    14    10    29 1   
    15    11    12 1   
    16    11    13 1   
    17    11    30 1   
    18    12    31 1   
    19    13    14 1   
    20    13    15 1   
    21    13    32 1   
    22    14    33 1   
    23    15    16 1   
    24    15    17 1   
    25    15    34 1   
    26    17    18 1   
    27    17    21 1   
    28    18    19 ar  
    29    18    22 ar  
    30    19    20 1   
    31    19    25 ar  
    32    20    21 2   
    33    21    35 1   
    34    22    23 ar  
    35    23    24 ar  
    36    23    36 1   
    37    24    25 ar  
    38    25    26 1   
    39    26    37 1   
    40    26    38 1   
@<TRIPOS>SUBSTRUCTURE
     1 KG4         1 TEMP              0 ****  ****    0 ROOT
