@<TRIPOS>MOLECULE
KG4
   38    40     1     0     0
SMALL
bcc


@<TRIPOS>ATOM
      1 O1A         -3.5260     0.9860     1.7850 o          1 KG4      -0.854000
      2 PA          -3.7770     0.0580     0.6360 p5         1 KG4       1.428800
      3 O2A         -4.5310    -1.2190     0.8400 o          1 KG4      -0.854000
      4 O3A         -4.2890     0.8640    -0.7010 os         1 KG4      -0.656500
      5 CB          -5.5530     1.4700    -0.7090 c          1 KG4       0.548100
      6 O2B         -6.2390     1.3320     0.3090 o          1 KG4      -0.590000
      7 O1B         -5.7960     2.0670    -1.7600 o          1 KG4      -0.590000
      8 O5          -2.3230    -0.3020    -0.0740 os         1 KG4      -0.536200
      9 C5          -1.3570    -0.9180     0.7410 c3         1 KG4       0.208400
     10 C4          -0.3810    -1.6750    -0.1270 c5         1 KG4       0.130100
     11 C3           0.7370    -2.3460     0.6670 c5         1 KG4       0.060100
     12 O3           0.3340    -3.6200     1.0840 oh         1 KG4      -0.574800
     13 C2           1.8840    -2.3610    -0.3480 c5         1 KG4       0.067100
     14 O2           1.7100    -3.3840    -1.2900 oh         1 KG4      -0.587800
     15 C1           1.6530    -1.0340    -1.0660 c5         1 KG4       0.262800
     16 O4           0.2830    -0.7910    -1.0340 os         1 KG4      -0.356600
     17 N9           2.3490     0.0640    -0.3970 na         1 KG4      -0.271000
     18 C9           3.7020     0.2380    -0.3610 ca         1 KG4       0.427800
     19 C7           3.8990     1.4290     0.3190 ca         1 KG4      -0.218200
     20 N7           2.7020     1.9840     0.6840 nc         1 KG4      -0.582100
     21 C8           1.8090     1.1490     0.2370 cd         1 KG4       0.454700
     22 N3           4.6480    -0.5510    -0.8700 nb         1 KG4      -0.736000
     23 C10          5.8570    -0.0650    -0.6500 ca         1 KG4       0.679900
     24 N1           6.1970     1.0540    -0.0160 nb         1 KG4      -0.850000
     25 C6           5.2360     1.8370     0.4870 ca         1 KG4       0.766200
     26 N6           5.5720     2.9560     1.1290 nv         1 KG4      -0.966500
     27 H3          -0.8240    -0.1790     1.3530 h1         1 KG4       0.015700
     28 H4          -1.8010    -1.6430     1.4340 h1         1 KG4       0.015700
     29 H5          -0.9250    -2.4300    -0.7070 h1         1 KG4       0.093700
     30 H6           1.0230    -1.7180     1.5210 h1         1 KG4       0.053700
     31 H7           0.9030    -3.9050     1.8060 ho         1 KG4       0.395000
     32 H8           2.8690    -2.4100     0.1300 h1         1 KG4       0.057700
     33 H9           1.3700    -4.1580    -0.8240 ho         1 KG4       0.419000
     34 H10          2.0100    -1.0670    -2.0990 h2         1 KG4       0.104700
     35 H11          0.7440     1.2850     0.3300 h5         1 KG4       0.117800
     36 H12          6.6850    -0.6520    -1.0340 h5         1 KG4       0.029100
     37 H13          4.8680     3.5920     1.4630 hn         1 KG4       0.442800
     38 H14          6.5340     3.2440     1.1780 hn         1 KG4       0.442800
@<TRIPOS>BOND
     1     1     2 1   
     2     2     3 1   
     3     2     4 1   
     4     2     8 1   
     5     4     5 1   
     6     5     6 1   
     7     5     7 1   
     8     8     9 1   
     9     9    10 1   
    10     9    27 1   
    11     9    28 1   
    12    10    11 1   
    13    10    16 1   
    14    10    29 1   
    15    11    12 1   
    16    11    13 1   
    17    11    30 1   
    18    12    31 1   
    19    13    14 1   
    20    13    15 1   
    21    13    32 1   
    22    14    33 1   
    23    15    16 1   
    24    15    17 1   
    25    15    34 1   
    26    17    18 1   
    27    17    21 1   
    28    18    19 ar  
    29    18    22 ar  
    30    19    20 1   
    31    19    25 ar  
    32    20    21 2   
    33    21    35 1   
    34    22    23 ar  
    35    23    24 ar  
    36    23    36 1   
    37    24    25 ar  
    38    25    26 1   
    39    26    37 1   
    40    26    38 1   
@<TRIPOS>SUBSTRUCTURE
     1 KG4         1 TEMP              0 ****  ****    0 ROOT
