@<TRIPOS>MOLECULE
KG6
   84    89     1     0     0
SMALL
abcg2


@<TRIPOS>ATOM
      1 N1          14.0070     9.1320    12.0510 n3         1 KG6      -0.693600
      2 C7          21.4840    11.5660    10.8350 ca         1 KG6       0.446900
      3 C8          22.8320    10.0680    11.9430 ca         1 KG6       0.172900
      4 N2          19.0640    11.2970    11.5550 nc         1 KG6      -0.554100
      5 C9          20.6950    10.0070    12.4470 ca         1 KG6       0.148500
      6 O1          16.3450     4.5480    12.7610 o          1 KG6      -0.658100
      7 C1          12.7040     8.7180    12.5700 c3         1 KG6       0.156800
      8 O5          19.6110     9.5060    16.1130 oh         1 KG6      -0.704000
      9 C5          18.5510    10.4610    12.4210 cd         1 KG6       0.506700
     10 C6          20.4000    11.0290    11.5600 ca         1 KG6      -0.087600
     11 C4          17.1650    10.3810    12.6830 ch         1 KG6      -0.136200
     12 O4          19.2880     6.7760    16.2460 oh         1 KG6      -0.703000
     13 C3          15.9650    10.3680    12.7620 c1         1 KG6      -0.068100
     14 O3          13.2540     5.0450    11.7770 o          1 KG6      -0.734500
     15 C2          14.5100    10.2900    12.7880 c3         1 KG6       0.235900
     16 N4          22.6990    11.0530    11.0600 nb         1 KG6      -0.312000
     17 N           11.4220     7.6970    14.3550 n8         1 KG6      -0.981200
     18 C           12.7740     7.9680    13.8920 c3         1 KG6       0.143800
     19 O           18.5120     7.5870    13.3560 os         1 KG6      -0.418000
     20 C10         19.3330     8.5590    13.9300 c5         1 KG6       0.317300
     21 C11         17.8000     6.8810    14.3770 c5         1 KG6       0.147300
     22 C12         16.2970     6.9820    14.1410 c3         1 KG6       0.111000
     23 C14         15.3750     5.5270    10.7890 c3         1 KG6      -0.305400
     24 C15         13.8280     5.4150    10.7360 c          1 KG6       0.727000
     25 C16         18.2180     7.5080    15.7070 c5         1 KG6       0.108300
     26 C17         18.6790     8.9030    15.2640 c5         1 KG6       0.073300
     27 C18         13.8910     9.3770    10.6150 c3         1 KG6       0.156800
     28 C19         15.1370     9.8820     9.9220 c5         1 KG6       0.130300
     29 C20         17.1260     9.1370     9.0270 c5         1 KG6       0.271300
     30 C21         16.4370     9.9920     7.9370 c5         1 KG6       0.132300
     31 C22         14.9780     9.9820     8.3990 c5         1 KG6       0.137300
     32 C23         16.9340     6.9280     7.8040 cc         1 KG6       0.422700
     33 C24         18.6170     5.9160     8.5770 ca         1 KG6      -0.094600
     34 C25         19.6430     5.0370     8.9730 ca         1 KG6       0.452900
     35 C26         20.4860     6.7520    10.2560 ca         1 KG6       0.183900
     36 C27         18.6620     7.1890     9.1180 ca         1 KG6       0.141500
     37 N10         19.7260     3.7790     8.5400 nv         1 KG6      -1.070900
     38 N11         20.5680     5.4970     9.8240 nb         1 KG6      -0.308000
     39 N12         19.5760     7.6640     9.9590 nb         1 KG6      -0.214000
     40 N5          21.8970     9.4860    12.6760 nb         1 KG6      -0.213000
     41 N6          19.5030     9.6530    13.0090 na         1 KG6      -0.254300
     42 N7          15.9030     6.7580    12.7760 ns         1 KG6      -0.502900
     43 N8          17.5770     7.8400     8.6010 na         1 KG6      -0.296300
     44 N9          17.5290     5.7750     7.7530 nd         1 KG6      -0.545100
     45 O2          13.3090     5.6920     9.6390 o          1 KG6      -0.734500
     46 O6          16.1980     8.9590    10.0690 os         1 KG6      -0.414000
     47 O7          16.9040    11.3120     7.9700 oh         1 KG6      -0.687000
     48 O8          14.2850    11.1010     7.9430 oh         1 KG6      -0.691000
     49 H3          12.0290     9.5850    12.6650 h1         1 KG6       0.051200
     50 H4          12.2450     8.0540    11.8360 h1         1 KG6       0.051200
     51 H6          22.1370    12.8970     9.4430 hn         1 KG6       0.502000
     52 H7          20.4390    12.9490     9.7550 hn         1 KG6       0.502000
     53 H8          19.7410     7.3430    16.8820 ho         1 KG6       0.508000
     54 H10         14.0890    11.2360    12.4160 h1         1 KG6       0.046200
     55 H11         14.1950    10.2130    13.8300 h1         1 KG6       0.046200
     56 H12         11.4570     7.0780    15.1540 hn         1 KG6       0.380500
     57 H13         11.0000     8.5540    14.6910 hn         1 KG6       0.380500
     58 H15         13.2790     7.0170    13.7220 h1         1 KG6       0.047200
     59 H16         13.3810     8.5200    14.6230 h1         1 KG6       0.047200
     60 H17         20.3470     8.1830    14.1110 h2         1 KG6       0.106700
     61 H18         18.1010     5.8310    14.3460 h1         1 KG6       0.113700
     62 H19         15.9410     7.9780    14.4130 h1         1 KG6       0.031200
     63 H20         15.8050     6.2780    14.8190 h1         1 KG6       0.031200
     64 H21         15.7990     4.6700    10.2590 hc         1 KG6       0.051200
     65 H22         15.6870     6.4190    10.2460 hc         1 KG6       0.051200
     66 H23         17.3740     7.5620    16.4080 h1         1 KG6       0.047700
     67 H24         17.8020     9.5400    15.1050 h1         1 KG6       0.061700
     68 H25         13.0980    10.1150    10.4100 h1         1 KG6       0.060700
     69 H26         13.5870     8.4370    10.1460 h1         1 KG6       0.060700
     70 H27         15.4220    10.8700    10.3100 h1         1 KG6       0.063700
     71 H28         18.0150     9.6620     9.3900 h2         1 KG6       0.103700
     72 H29         16.5590     9.5540     6.9400 h1         1 KG6       0.055700
     73 H30         14.5180     9.0470     8.0450 h1         1 KG6       0.064700
     74 H31         16.0240     7.1760     7.2770 h5         1 KG6       0.068800
     75 H32         21.2670     7.0630    10.9430 h5         1 KG6       0.045100
     76 H33         20.4630     3.1770     8.8650 hn         1 KG6       0.502000
     77 H34         19.0350     3.3940     7.9200 hn         1 KG6       0.502000
     78 H35         15.4360     7.5290    12.3070 hn         1 KG6       0.351500
     79 H36         17.8050    11.3260     7.6330 ho         1 KG6       0.500000
     80 H37         13.3420    10.9140     7.9840 ho         1 KG6       0.505000
     81 N3          21.3400    12.5460     9.9450 nv         1 KG6      -1.073900
     82 H5          19.1430    10.0220    16.7770 ho         1 KG6       0.505000
     83 C13         15.9180     5.5460    12.1920 c          1 KG6       0.643100
     84 H2          23.8420     9.6950    12.0750 h5         1 KG6       0.038100
@<TRIPOS>BOND
     1     1     7 1   
     2     1    15 1   
     3     1    27 1   
     4     2    10 ar  
     5     2    16 ar  
     6     2    81 1   
     7     3    16 ar  
     8     3    40 ar  
     9     3    84 1   
    10     4     9 2   
    11     4    10 1   
    12     5    10 ar  
    13     5    40 ar  
    14     5    41 1   
    15     6    83 2   
    16     7    18 1   
    17     7    49 1   
    18     7    50 1   
    19     8    26 1   
    20     8    82 1   
    21     9    11 1   
    22     9    41 1   
    23    11    13 3   
    24    12    25 1   
    25    12    53 1   
    26    13    15 1   
    27    14    24 1   
    28    15    54 1   
    29    15    55 1   
    30    17    18 1   
    31    17    56 1   
    32    17    57 1   
    33    18    58 1   
    34    18    59 1   
    35    19    20 1   
    36    19    21 1   
    37    20    26 1   
    38    20    41 1   
    39    20    60 1   
    40    21    22 1   
    41    21    25 1   
    42    21    61 1   
    43    22    42 1   
    44    22    62 1   
    45    22    63 1   
    46    23    24 1   
    47    23    64 1   
    48    23    65 1   
    49    23    83 1   
    50    24    45 1   
    51    25    26 1   
    52    25    66 1   
    53    26    67 1   
    54    27    28 1   
    55    27    68 1   
    56    27    69 1   
    57    28    31 1   
    58    28    46 1   
    59    28    70 1   
    60    29    30 1   
    61    29    43 1   
    62    29    46 1   
    63    29    71 1   
    64    30    31 1   
    65    30    47 1   
    66    30    72 1   
    67    31    48 1   
    68    31    73 1   
    69    32    43 1   
    70    32    44 2   
    71    32    74 1   
    72    33    34 ar  
    73    33    36 ar  
    74    33    44 1   
    75    34    37 1   
    76    34    38 ar  
    77    35    38 ar  
    78    35    39 ar  
    79    35    75 1   
    80    36    39 ar  
    81    36    43 1   
    82    37    76 1   
    83    37    77 1   
    84    42    78 1   
    85    42    83 1   
    86    47    79 1   
    87    48    80 1   
    88    51    81 1   
    89    52    81 1   
@<TRIPOS>SUBSTRUCTURE
     1 KG6         1 TEMP              0 ****  ****    0 ROOT
