@<TRIPOS>MOLECULE
KG6
   84    89     1     0     0
SMALL
No Charge or Current Charge


@<TRIPOS>ATOM
      1 N1          13.9720     9.3530    12.1490 n3         1 KG6      -0.693600
      2 C7          21.7420    11.8190    11.1830 ca         1 KG6       0.446900
      3 C8          23.0640    10.2030    12.1120 ca         1 KG6       0.172900
      4 N2          19.2730    11.5580    11.6770 nc         1 KG6      -0.554100
      5 C9          20.8080    10.0520    12.4880 ca         1 KG6       0.148500
      6 O1          15.9880     4.5570    12.3700 o          1 KG6      -0.658100
      7 C1          12.6740     8.9750    12.7850 c3         1 KG6       0.156800
      8 O5          19.5480     9.0990    16.1330 oh         1 KG6      -0.704000
      9 C5          18.6900    10.5830    12.3950 cd         1 KG6       0.506700
     10 C6          20.6120    11.1910    11.7470 ca         1 KG6      -0.087600
     11 C4          17.2820    10.5760    12.5820 ch         1 KG6      -0.136200
     12 O4          19.3050     6.3910    15.7900 oh         1 KG6      -0.703000
     13 C3          16.0720    10.5660    12.7010 c1         1 KG6      -0.068100
     14 O3          13.4040     3.7350    10.5410 o          1 KG6      -0.734500
     15 C2          14.6060    10.5420    12.7960 c3         1 KG6       0.235900
     16 N4          22.9770    11.3280    11.3650 nb         1 KG6      -0.312000
     17 N           11.4230     8.1350    14.8310 n8         1 KG6      -0.981200
     18 C           12.7560     8.4310    14.2430 c3         1 KG6       0.143800
     19 O           18.3320     7.6020    13.0060 os         1 KG6      -0.418000
     20 C10         19.2760     8.4310    13.7070 c5         1 KG6       0.317300
     21 C11         17.6230     6.7770    13.9700 c5         1 KG6       0.147300
     22 C12         16.0970     7.0190    13.8230 c3         1 KG6       0.111000
     23 C14         14.9030     5.5420    10.4720 c3         1 KG6      -0.305400
     24 C15         13.5270     4.9450    10.6440 c          1 KG6       0.727000
     25 C16         18.1800     7.1780    15.3820 c5         1 KG6       0.108300
     26 C17         18.6330     8.6390    15.1150 c5         1 KG6       0.073300
     27 C18         13.8040     9.4860    10.6630 c3         1 KG6       0.156800
     28 C19         15.0740     9.7600     9.8050 c5         1 KG6       0.130300
     29 C20         17.0990     8.9150     9.0340 c5         1 KG6       0.271300
     30 C21         16.3860     9.6370     7.8230 c5         1 KG6       0.132300
     31 C22         14.8910     9.5960     8.2700 c5         1 KG6       0.137300
     32 C23         17.1190     6.6040     7.9610 cc         1 KG6       0.422700
     33 C24         18.9540     5.8350     8.7800 ca         1 KG6      -0.094600
     34 C25         20.0840     5.0750     9.1470 ca         1 KG6       0.452900
     35 C26         20.7990     6.8290    10.4300 ca         1 KG6       0.183900
     36 C27         18.8290     7.0980     9.3010 ca         1 KG6       0.141500
     37 N10         20.3010     3.8130     8.6890 nv         1 KG6      -1.070900
     38 N11         21.0130     5.5690     9.9800 nb         1 KG6      -0.308000
     39 N12         19.7510     7.6310    10.1270 nb         1 KG6      -0.214000
     40 N5          22.0370     9.5340    12.6880 nb         1 KG6      -0.213000
     41 N6          19.5790     9.6270    12.9250 na         1 KG6      -0.254300
     42 N7          15.5370     6.7790    12.4890 ns         1 KG6      -0.502900
     43 N8          17.6630     7.5900     8.7910 na         1 KG6      -0.296300
     44 N9          17.8920     5.5020     7.9340 nd         1 KG6      -0.545100
     45 O2          12.6050     5.6990    10.9010 o          1 KG6      -0.734500
     46 O6          16.1100     8.8000    10.0790 os         1 KG6      -0.414000
     47 O7          16.7900    11.0050     7.6720 oh         1 KG6      -0.687000
     48 O8          14.1350    10.6560     7.6520 oh         1 KG6      -0.691000
     49 H3          11.9980     9.8410    12.7740 h1         1 KG6       0.051200
     50 H4          12.1890     8.1930    12.1850 h1         1 KG6       0.051200
     51 H6          22.5010    13.5060    10.3120 hn         1 KG6       0.502000
     52 H7          20.7760    13.4590    10.4640 hn         1 KG6       0.502000
     53 H8          19.8600     7.0310    16.3020 ho         1 KG6       0.508000
     54 H10         14.2090    11.4690    12.3610 h1         1 KG6       0.046200
     55 H11         14.3720    10.5800    13.8660 h1         1 KG6       0.046200
     56 H12         11.5470     7.8070    15.7960 hn         1 KG6       0.380500
     57 H13         10.8990     9.0120    14.9370 hn         1 KG6       0.380500
     58 H15         13.3460     7.5050    14.2420 h1         1 KG6       0.047200
     59 H16         13.2620     9.1540    14.8950 h1         1 KG6       0.047200
     60 H17         20.2210     7.8830    13.8130 h2         1 KG6       0.106700
     61 H18         17.8330     5.7200    13.7610 h1         1 KG6       0.113700
     62 H19         15.8730     8.0560    14.1010 h1         1 KG6       0.031200
     63 H20         15.5700     6.3700    14.5340 h1         1 KG6       0.031200
     64 H21         15.5290     4.8800     9.8650 hc         1 KG6       0.051200
     65 H22         14.8130     6.5780    10.1360 hc         1 KG6       0.051200
     66 H23         17.3940     7.1400    16.1500 h1         1 KG6       0.047700
     67 H24         17.7600     9.3040    15.0530 h1         1 KG6       0.061700
     68 H25         13.0870    10.2900    10.4490 h1         1 KG6       0.060700
     69 H26         13.3540     8.5620    10.2740 h1         1 KG6       0.060700
     70 H27         15.4500    10.7640    10.0420 h1         1 KG6       0.063700
     71 H28         17.9300     9.5410     9.3850 h2         1 KG6       0.103700
     72 H29         16.5320     9.0940     6.8790 h1         1 KG6       0.055700
     73 H30         14.4510     8.6150     8.0390 h1         1 KG6       0.064700
     74 H31         16.1850     6.7410     7.4290 h5         1 KG6       0.068800
     75 H32         21.5500     7.2410    11.1010 h5         1 KG6       0.045100
     76 H33         20.9520     3.2260     9.2030 hn         1 KG6       0.502000
     77 H34         19.5180     3.3450     8.2400 hn         1 KG6       0.502000
     78 H35         15.1430     7.5740    11.9880 hn         1 KG6       0.351500
     79 H36         15.9330    11.4690     7.4990 ho         1 KG6       0.500000
     80 H37         13.1930    10.3650     7.6070 ho         1 KG6       0.505000
     81 N3          21.6580    12.9530    10.4380 nv         1 KG6      -1.073900
     82 H5          19.6830    10.0680    16.0000 ho         1 KG6       0.505000
     83 C13         15.5150     5.5600    11.8540 c          1 KG6       0.643100
     84 H2          24.0600     9.7940    12.2670 h5         1 KG6       0.038100
@<TRIPOS>BOND
     1     1     7 1   
     2     1    15 1   
     3     1    27 1   
     4     2    10 ar  
     5     2    16 ar  
     6     2    81 1   
     7     3    16 ar  
     8     3    40 ar  
     9     3    84 1   
    10     4     9 2   
    11     4    10 1   
    12     5    10 ar  
    13     5    40 ar  
    14     5    41 1   
    15     6    83 2   
    16     7    18 1   
    17     7    49 1   
    18     7    50 1   
    19     8    26 1   
    20     8    82 1   
    21     9    11 1   
    22     9    41 1   
    23    11    13 3   
    24    12    25 1   
    25    12    53 1   
    26    13    15 1   
    27    14    24 1   
    28    15    54 1   
    29    15    55 1   
    30    17    18 1   
    31    17    56 1   
    32    17    57 1   
    33    18    58 1   
    34    18    59 1   
    35    19    20 1   
    36    19    21 1   
    37    20    26 1   
    38    20    41 1   
    39    20    60 1   
    40    21    22 1   
    41    21    25 1   
    42    21    61 1   
    43    22    42 1   
    44    22    62 1   
    45    22    63 1   
    46    23    24 1   
    47    23    64 1   
    48    23    65 1   
    49    23    83 1   
    50    24    45 1   
    51    25    26 1   
    52    25    66 1   
    53    26    67 1   
    54    27    28 1   
    55    27    68 1   
    56    27    69 1   
    57    28    31 1   
    58    28    46 1   
    59    28    70 1   
    60    29    30 1   
    61    29    43 1   
    62    29    46 1   
    63    29    71 1   
    64    30    31 1   
    65    30    47 1   
    66    30    72 1   
    67    31    48 1   
    68    31    73 1   
    69    32    43 1   
    70    32    44 2   
    71    32    74 1   
    72    33    34 ar  
    73    33    36 ar  
    74    33    44 1   
    75    34    37 1   
    76    34    38 ar  
    77    35    38 ar  
    78    35    39 ar  
    79    35    75 1   
    80    36    39 ar  
    81    36    43 1   
    82    37    76 1   
    83    37    77 1   
    84    42    78 1   
    85    42    83 1   
    86    47    79 1   
    87    48    80 1   
    88    51    81 1   
    89    52    81 1   
@<TRIPOS>SUBSTRUCTURE
     1 KG6         1 TEMP              0 ****  ****    0 ROOT
