@<TRIPOS>MOLECULE
KG7
   11    10     1     0     0
SMALL
bcc


@<TRIPOS>ATOM
      1 O            1.9520    -0.8240     0.0310 o          1 KG7      -0.811300
      2 CS1          1.1700     0.1460     0.0360 c          1 KG7       0.842300
      3 OS1          1.4650     1.3520     0.0260 o          1 KG7      -0.811300
      4 CS2         -0.3200    -0.2180     0.0410 ce         1 KG7       0.295300
      5 CS3         -0.7170    -1.6600     0.0320 c3         1 KG7      -0.140400
      6 NS4         -1.1290     0.7630     0.0200 n2         1 KG7      -0.442200
      7 OS4         -2.4480     0.3930    -0.0190 oh         1 KG7      -0.429500
      8 H2          -0.7730    -2.0310    -0.9950 hc         1 KG7       0.034033
      9 H3           0.0290    -2.2610     0.5440 hc         1 KG7       0.034033
     10 H4          -1.6890    -1.8350     0.4910 hc         1 KG7       0.034033
     11 H5          -2.9220     1.2300     0.0030 ho         1 KG7       0.396000
@<TRIPOS>BOND
     1     1     2 1   
     2     2     3 1   
     3     2     4 1   
     4     4     5 1   
     5     4     6 2   
     6     5     8 1   
     7     5     9 1   
     8     5    10 1   
     9     6     7 1   
    10     7    11 1   
@<TRIPOS>SUBSTRUCTURE
     1 KG7         1 TEMP              0 ****  ****    0 ROOT
