@<TRIPOS>MOLECULE
KG7
   11    10     1     0     0
SMALL
No Charge or Current Charge


@<TRIPOS>ATOM
      1 O            2.0390    -0.7520     0.2060 o          1 KG7      -0.706000
      2 CS1          1.2060     0.1470     0.1300 c          1 KG7       0.631700
      3 OS1          1.5510     1.3260     0.1330 o          1 KG7      -0.706000
      4 CS2         -0.2960    -0.2080     0.0290 ce         1 KG7       0.295300
      5 CS3         -0.7060    -1.6890     0.0260 c3         1 KG7      -0.140400
      6 NS4         -1.1680     0.7760    -0.0520 n2         1 KG7      -0.343700
      7 OS4         -2.5280     0.4170    -0.1430 oh         1 KG7      -0.567000
      8 H2          -1.2410    -1.9470    -0.8960 hc         1 KG7       0.034033
      9 H3           0.1460    -2.3730     0.0990 hc         1 KG7       0.034033
     10 H4          -1.3680    -1.9150     0.8700 hc         1 KG7       0.034033
     11 H5          -3.0170     1.2740    -0.1930 ho         1 KG7       0.435000
@<TRIPOS>BOND
     1     1     2 1   
     2     2     3 1   
     3     2     4 1   
     4     4     5 1   
     5     4     6 2   
     6     5     8 1   
     7     5     9 1   
     8     5    10 1   
     9     6     7 1   
    10     7    11 1   
@<TRIPOS>SUBSTRUCTURE
     1 KG7         1 TEMP              0 ****  ****    0 ROOT
