@<TRIPOS>MOLECULE
KG8
   45    47     1     0     0
SMALL
No Charge or Current Charge


@<TRIPOS>ATOM
      1 N1          49.1160   -14.5560    -7.8850 na         1 KG8      -0.158500
      2 C4          48.0930   -14.8110    -8.9460 c6         1 KG8       0.085300
      3 C5          48.4720   -14.2410   -10.3520 c3         1 KG8       0.152600
      4 C6          48.8410   -14.1400    -6.5950 cc         1 KG8       0.351800
      5 C7          50.9640   -14.4880    -6.7160 cd         1 KG8       0.244300
      6 C8          52.3950   -14.5780    -6.2530 c3         1 KG8      -0.093700
      7 C10         52.2210   -16.9960    -5.3400 c3         1 KG8      -0.034100
      8 C13         54.3790   -20.0570    -4.5030 ca         1 KG8      -0.109500
      9 C15         52.9540   -20.6110    -6.3950 ca         1 KG8      -0.109500
     10 C17         50.4730   -14.7910    -7.9590 cc         1 KG8      -0.201000
     11 O1          45.0670   -14.2000    -6.6430 oh         1 KG8      -0.669000
     12 C1          46.4120   -14.5770    -6.9950 c6         1 KG8       0.136300
     13 C2          47.4350   -13.8170    -6.1070 c6         1 KG8       0.128000
     14 O2          47.2460   -14.1560    -4.7120 oh         1 KG8      -0.718000
     15 C3          46.6900   -14.2730    -8.4980 c6         1 KG8       0.167300
     16 O3          45.6330   -14.8500    -9.2820 oh         1 KG8      -0.716000
     17 O4          49.5540   -14.9520   -10.9770 oh         1 KG8      -0.664000
     18 N2          49.9510   -14.0870    -5.8720 nd         1 KG8      -0.682000
     19 C9          52.9590   -16.0180    -6.2810 c3         1 KG8      -0.072400
     20 C11         52.8240   -18.3940    -5.3820 ca         1 KG8      -0.076300
     21 C12         53.8200   -18.7680    -4.4590 ca         1 KG8      -0.109000
     22 C14         53.9450   -20.9790    -5.4700 ca         1 KG8      -0.114000
     23 C16         52.3950   -19.3220    -6.3510 ca         1 KG8      -0.109000
     24 H1          48.0060   -15.9010    -9.0520 h1         1 KG8       0.096700
     25 H2          48.7250   -13.1780   -10.2380 h1         1 KG8       0.042700
     26 H3          47.5850   -14.2960   -10.9980 h1         1 KG8       0.042700
     27 H4          52.4920   -14.1750    -5.2380 hc         1 KG8       0.054700
     28 H5          53.0200   -13.9450    -6.8940 hc         1 KG8       0.054700
     29 H6          52.2500   -16.6020    -4.3160 hc         1 KG8       0.051200
     30 H7          51.1610   -17.0420    -5.6180 hc         1 KG8       0.051200
     31 H9          52.6180   -21.3240    -7.1450 ha         1 KG8       0.110000
     32 H10         50.9780   -15.1520    -8.8450 h4         1 KG8       0.174000
     33 H11         45.0680   -14.1410    -5.6580 ho         1 KG8       0.471000
     34 H12         46.5520   -15.6570    -6.8300 h1         1 KG8       0.065700
     35 H13         47.2720   -12.7370    -6.2460 h1         1 KG8       0.058700
     36 H14         48.1460   -14.0930    -4.3050 ho         1 KG8       0.538000
     37 H15         46.6860   -13.1790    -8.6220 h1         1 KG8       0.049700
     38 H16         44.8350   -14.7610    -8.7030 ho         1 KG8       0.533000
     39 H17         49.7030   -14.5370   -11.8570 ho         1 KG8       0.453000
     40 H18         54.0190   -15.9870    -6.0000 hc         1 KG8       0.041700
     41 H19         52.9180   -16.4030    -7.3080 hc         1 KG8       0.041700
     42 H20         54.1630   -18.0590    -3.7090 ha         1 KG8       0.110500
     43 H21         54.3780   -21.9770    -5.5040 ha         1 KG8       0.110000
     44 H22         51.6290   -19.0430    -7.0720 ha         1 KG8       0.110500
     45 H8          55.1480   -20.3400    -3.7870 ha         1 KG8       0.110000
@<TRIPOS>BOND
     1     1     2 1   
     2     1     4 1   
     3     1    10 1   
     4     2     3 1   
     5     2    15 1   
     6     2    24 1   
     7     3    17 1   
     8     3    25 1   
     9     3    26 1   
    10     4    13 1   
    11     4    18 2   
    12     5     6 1   
    13     5    10 2   
    14     5    18 1   
    15     6    19 1   
    16     6    27 1   
    17     6    28 1   
    18     7    19 1   
    19     7    20 1   
    20     7    29 1   
    21     7    30 1   
    22     8    21 ar  
    23     8    22 ar  
    24     8    45 1   
    25     9    22 ar  
    26     9    23 ar  
    27     9    31 1   
    28    10    32 1   
    29    11    12 1   
    30    11    33 1   
    31    12    13 1   
    32    12    15 1   
    33    12    34 1   
    34    13    14 1   
    35    13    35 1   
    36    14    36 1   
    37    15    16 1   
    38    15    37 1   
    39    16    38 1   
    40    17    39 1   
    41    19    40 1   
    42    19    41 1   
    43    20    21 ar  
    44    20    23 ar  
    45    21    42 1   
    46    22    43 1   
    47    23    44 1   
@<TRIPOS>SUBSTRUCTURE
     1 KG8         1 TEMP              0 ****  ****    0 ROOT
