@<TRIPOS>MOLECULE
KG8
   45    47     1     0     0
SMALL
abcg2


@<TRIPOS>ATOM
      1 N1          48.9320   -14.8030    -7.4290 na         1 KG8      -0.158500
      2 C4          47.9940   -15.2790    -8.4390 c6         1 KG8       0.085300
      3 C5          48.6570   -15.4380    -9.8000 c3         1 KG8       0.152600
      4 C6          48.6770   -13.8630    -6.4950 cc         1 KG8       0.351800
      5 C7          50.6430   -14.5890    -6.0790 cd         1 KG8       0.244300
      6 C8          51.9690   -14.6790    -5.3960 c3         1 KG8      -0.093700
      7 C10         52.1930   -17.2200    -5.1910 c3         1 KG8      -0.034100
      8 C13         54.6710   -20.0960    -5.4140 ca         1 KG8      -0.109500
      9 C15         53.3610   -20.0580    -7.4240 ca         1 KG8      -0.109500
     10 C17         50.1940   -15.2830    -7.1670 cc         1 KG8      -0.201000
     11 O1          45.1560   -13.1080    -7.3670 oh         1 KG8      -0.669000
     12 C1          46.3120   -13.8810    -7.1600 c6         1 KG8       0.136300
     13 C2          47.3980   -13.0910    -6.4490 c6         1 KG8       0.128000
     14 O2          46.9930   -12.8430    -5.1280 oh         1 KG8      -0.718000
     15 C3          46.8130   -14.3070    -8.5380 c6         1 KG8       0.167300
     16 O3          45.8130   -14.9780    -9.2560 oh         1 KG8      -0.716000
     17 O4          49.4920   -16.5720    -9.7870 oh         1 KG8      -0.664000
     18 N2          49.6810   -13.7040    -5.6730 nd         1 KG8      -0.682000
     19 C9          52.7730   -15.9220    -5.7600 c3         1 KG8      -0.072400
     20 C11         52.9370   -18.4280    -5.6850 ca         1 KG8      -0.076300
     21 C12         53.9570   -19.0060    -4.9330 ca         1 KG8      -0.109000
     22 C14         54.3760   -20.6260    -6.6630 ca         1 KG8      -0.114000
     23 C16         52.6510   -18.9710    -6.9370 ca         1 KG8      -0.109000
     24 H1          47.6040   -16.2510    -8.1160 h1         1 KG8       0.096700
     25 H2          49.2100   -14.5190   -10.0300 h1         1 KG8       0.042700
     26 H3          47.8680   -15.5400   -10.5520 h1         1 KG8       0.042700
     27 H4          51.8190   -14.6350    -4.3130 hc         1 KG8       0.054700
     28 H5          52.5600   -13.7920    -5.6460 hc         1 KG8       0.054700
     29 H6          52.2310   -17.1780    -4.1000 hc         1 KG8       0.051200
     30 H7          51.1380   -17.3040    -5.4630 hc         1 KG8       0.051200
     31 H9          53.1210   -20.4660    -8.3980 ha         1 KG8       0.110000
     32 H10         50.6450   -16.0530    -7.7660 h4         1 KG8       0.174000
     33 H11         44.6870   -13.0180    -6.5310 ho         1 KG8       0.471000
     34 H12         46.0840   -14.7840    -6.5720 h1         1 KG8       0.065700
     35 H13         47.5410   -12.1440    -6.9950 h1         1 KG8       0.058700
     36 H14         47.7360   -12.4500    -4.6570 ho         1 KG8       0.538000
     37 H15         47.1470   -13.4030    -9.0750 h1         1 KG8       0.049700
     38 H16         45.0600   -14.3830    -9.3470 ho         1 KG8       0.533000
     39 H17         50.0070   -16.5750   -10.5980 ho         1 KG8       0.453000
     40 H18         53.7960   -15.8030    -5.3930 hc         1 KG8       0.041700
     41 H19         52.8580   -16.0010    -6.8490 hc         1 KG8       0.041700
     42 H20         54.1920   -18.6000    -3.9550 ha         1 KG8       0.110500
     43 H21         54.9300   -21.4760    -7.0400 ha         1 KG8       0.110000
     44 H22         51.8580   -18.5390    -7.5390 ha         1 KG8       0.110500
     45 H8          55.4560   -20.5330    -4.8110 ha         1 KG8       0.110000
@<TRIPOS>BOND
     1     1     2 1   
     2     1     4 1   
     3     1    10 1   
     4     2     3 1   
     5     2    15 1   
     6     2    24 1   
     7     3    17 1   
     8     3    25 1   
     9     3    26 1   
    10     4    13 1   
    11     4    18 2   
    12     5     6 1   
    13     5    10 2   
    14     5    18 1   
    15     6    19 1   
    16     6    27 1   
    17     6    28 1   
    18     7    19 1   
    19     7    20 1   
    20     7    29 1   
    21     7    30 1   
    22     8    21 ar  
    23     8    22 ar  
    24     8    45 1   
    25     9    22 ar  
    26     9    23 ar  
    27     9    31 1   
    28    10    32 1   
    29    11    12 1   
    30    11    33 1   
    31    12    13 1   
    32    12    15 1   
    33    12    34 1   
    34    13    14 1   
    35    13    35 1   
    36    14    36 1   
    37    15    16 1   
    38    15    37 1   
    39    16    38 1   
    40    17    39 1   
    41    19    40 1   
    42    19    41 1   
    43    20    21 ar  
    44    20    23 ar  
    45    21    42 1   
    46    22    43 1   
    47    23    44 1   
@<TRIPOS>SUBSTRUCTURE
     1 KG8         1 TEMP              0 ****  ****    0 ROOT
