@<TRIPOS>MOLECULE
KGC
   35    35     1     0     0
SMALL
bcc


@<TRIPOS>ATOM
      1 N            4.9050     1.6370     0.2510 n8         1 KGC      -0.883800
      2 CA           4.6750     0.2140     0.4530 c3         1 KGC       0.023500
      3 CB           3.4050    -0.3340    -0.2200 c3         1 KGC      -0.100400
      4 CG           2.1070     0.2660     0.3070 c3         1 KGC      -0.078400
      5 CD           0.8760    -0.2990    -0.3910 c3         1 KGC      -0.079400
      6 CE          -0.4240     0.2450     0.1800 c3         1 KGC       0.176800
      7 NZ          -1.5580    -0.2420    -0.5940 n7         1 KGC      -0.829200
      8 C11         -2.8550    -0.0180    -0.0060 c5         1 KGC       0.246000
      9 C13         -3.2520     1.4870    -0.0330 c          1 KGC       0.903600
     10 O15         -3.7110     1.9130    -1.1060 o          1 KGC      -0.811300
     11 O14         -3.0080     2.1340     1.0020 o          1 KGC      -0.811300
     12 O30         -3.7880    -0.7500    -0.8400 os         1 KGC      -0.376900
     13 C28         -4.7490    -1.3090    -0.1160 c          1 KGC       0.746600
     14 O29         -5.6660    -1.8980    -0.6280 o          1 KGC      -0.650500
     15 C27         -4.4830    -1.0760     1.3480 c5         1 KGC      -0.197400
     16 C12         -3.0150    -0.6790     1.3610 c5         1 KGC      -0.090400
     17 C            5.8810    -0.6060    -0.0530 c          1 KGC       0.935600
     18 O1           6.5610    -0.1090    -0.9740 o          1 KGC      -0.847800
     19 OXT          6.0470    -1.7260     0.4710 o          1 KGC      -0.847800
     20 H            5.1540     1.7840    -0.7190 hn         1 KGC       0.320800
     21 H2           4.0530     2.1580     0.4150 hn         1 KGC       0.320800
     22 HA           4.5750     0.0390     1.5300 h1         1 KGC       0.040700
     23 HB2          3.4740    -0.1660    -1.3010 hc         1 KGC       0.040700
     24 HB3          3.3710    -1.4190    -0.0770 hc         1 KGC       0.040700
     25 HG2          2.0370     0.0820     1.3850 hc         1 KGC       0.025700
     26 HG3          2.1120     1.3540     0.1830 hc         1 KGC       0.025700
     27 HD2          0.9320    -0.0660    -1.4600 hc         1 KGC       0.035200
     28 HD3          0.8710    -1.3900    -0.3140 hc         1 KGC       0.035200
     29 HE2         -0.5290    -0.0920     1.2140 h1         1 KGC       0.034200
     30 HE3         -0.3740     1.3420     0.2200 h1         1 KGC       0.034200
     31 HZ          -1.5320     0.2020    -1.5060 hn         1 KGC       0.373800
     32 H271        -5.1290    -0.2630     1.6940 hc         1 KGC       0.060700
     33 H272        -4.7250    -1.9570     1.9400 hc         1 KGC       0.060700
     34 H121        -2.3850    -1.5700     1.4110 hc         1 KGC       0.061700
     35 H122        -2.7530    -0.0180     2.1800 hc         1 KGC       0.061700
@<TRIPOS>BOND
     1     1     2 1   
     2     1    20 1   
     3     1    21 1   
     4     2     3 1   
     5     2    17 1   
     6     2    22 1   
     7     3     4 1   
     8     3    23 1   
     9     3    24 1   
    10     4     5 1   
    11     4    25 1   
    12     4    26 1   
    13     5     6 1   
    14     5    27 1   
    15     5    28 1   
    16     6     7 1   
    17     6    29 1   
    18     6    30 1   
    19     7     8 1   
    20     7    31 1   
    21     8     9 1   
    22     8    12 1   
    23     8    16 1   
    24     9    10 1   
    25     9    11 1   
    26    12    13 1   
    27    13    14 2   
    28    13    15 1   
    29    15    16 1   
    30    15    32 1   
    31    15    33 1   
    32    16    34 1   
    33    16    35 1   
    34    17    18 1   
    35    17    19 1   
@<TRIPOS>SUBSTRUCTURE
     1 KGC         1 TEMP              0 ****  ****    0 ROOT
