@<TRIPOS>MOLECULE
KGC
   35    35     1     0     0
SMALL
No Charge or Current Charge


@<TRIPOS>ATOM
      1 N            4.9000     1.7010     0.2950 n8         1 KGC      -0.883800
      2 CA           4.7790     0.1990     0.4130 c3         1 KGC       0.023500
      3 CB           3.4940    -0.2870    -0.3120 c3         1 KGC      -0.100400
      4 CG           2.1710     0.2480     0.2920 c3         1 KGC      -0.078400
      5 CD           0.9150    -0.3150    -0.4110 c3         1 KGC      -0.079400
      6 CE          -0.4000     0.2150     0.1940 c3         1 KGC       0.176800
      7 NZ          -1.5550    -0.3660    -0.5200 n7         1 KGC      -0.829200
      8 C11         -2.9240    -0.0230    -0.0030 c5         1 KGC       0.246000
      9 C13         -3.3350     1.5560     0.1160 c          1 KGC       0.903600
     10 O15         -4.2030     2.0200    -0.6210 o          1 KGC      -0.811300
     11 O14         -2.7830     2.2800     0.9440 o          1 KGC      -0.811300
     12 O30         -3.8100    -0.7350    -0.8960 os         1 KGC      -0.376900
     13 C28         -4.8950    -1.2230    -0.2190 c          1 KGC       0.746600
     14 O29         -5.4800    -2.2130    -0.6460 o          1 KGC      -0.650500
     15 C27         -4.6680    -0.9380     1.2730 c5         1 KGC      -0.197400
     16 C12         -3.1370    -0.7540     1.3600 c5         1 KGC      -0.090400
     17 C            6.0440    -0.6690    -0.0250 c          1 KGC       0.935600
     18 O1           6.4760    -0.5570    -1.1710 o          1 KGC      -0.847800
     19 OXT          6.6000    -1.3690     0.8170 o          1 KGC      -0.847800
     20 H            5.1010     1.9390    -0.6820 hn         1 KGC       0.320800
     21 H2           3.9860     2.1230     0.4820 hn         1 KGC       0.320800
     22 HA           4.6350    -0.0130     1.4810 h1         1 KGC       0.040700
     23 HB2          3.5480    -0.0170    -1.3750 hc         1 KGC       0.040700
     24 HB3          3.4710    -1.3830    -0.2730 hc         1 KGC       0.040700
     25 HG2          2.1310    -0.0130     1.3580 hc         1 KGC       0.025700
     26 HG3          2.1500     1.3420     0.2280 hc         1 KGC       0.025700
     27 HD2          0.9540    -0.0560    -1.4770 hc         1 KGC       0.035200
     28 HD3          0.9260    -1.4100    -0.3440 hc         1 KGC       0.035200
     29 HE2         -0.4310    -0.0490     1.2600 h1         1 KGC       0.034200
     30 HE3         -0.4090     1.3100     0.1160 h1         1 KGC       0.034200
     31 HZ          -1.5000    -0.0700    -1.5000 hn         1 KGC       0.373800
     32 H271        -5.1420     0.0190     1.5170 hc         1 KGC       0.060700
     33 H272        -5.0690    -1.7350     1.9080 hc         1 KGC       0.060700
     34 H121        -2.6180    -1.7200     1.3970 hc         1 KGC       0.061700
     35 H122        -2.8200    -0.1670     2.2300 hc         1 KGC       0.061700
@<TRIPOS>BOND
     1     1     2 1   
     2     1    20 1   
     3     1    21 1   
     4     2     3 1   
     5     2    17 1   
     6     2    22 1   
     7     3     4 1   
     8     3    23 1   
     9     3    24 1   
    10     4     5 1   
    11     4    25 1   
    12     4    26 1   
    13     5     6 1   
    14     5    27 1   
    15     5    28 1   
    16     6     7 1   
    17     6    29 1   
    18     6    30 1   
    19     7     8 1   
    20     7    31 1   
    21     8     9 1   
    22     8    12 1   
    23     8    16 1   
    24     9    10 1   
    25     9    11 1   
    26    12    13 1   
    27    13    14 2   
    28    13    15 1   
    29    15    16 1   
    30    15    32 1   
    31    15    33 1   
    32    16    34 1   
    33    16    35 1   
    34    17    18 1   
    35    17    19 1   
@<TRIPOS>SUBSTRUCTURE
     1 KGC         1 TEMP              0 ****  ****    0 ROOT
