@<TRIPOS>MOLECULE
KGD
   95    95     1     0     0
SMALL
abcg2


@<TRIPOS>ATOM
      1 CAB         12.4540    -1.3620     1.0460 c6         1 KGD      -0.014800
      2 CAC         13.3740    -0.5460     1.9550 c6         1 KGD      -0.064400
      3 CAD         11.5950    -0.4290     0.1950 ce         1 KGD      -0.013200
      4 CAE         14.1320     0.5250     1.1990 c6         1 KGD      -0.177400
      5 CAF         13.2730    -2.2610     0.1090 c3         1 KGD      -0.082600
      6 CAG         11.5830    -2.2430     1.9480 c3         1 KGD      -0.082600
      7 CAH         11.9470     0.8510    -0.0870 cf         1 KGD      -0.190400
      8 CAI         13.1930     1.4310     0.4550 c          1 KGD       0.571300
      9 CAJ         10.3860    -1.0520    -0.3440 ce         1 KGD      -0.188000
     10 CAK         11.1690     1.7660    -0.9910 c3         1 KGD      -0.046900
     11 CAL          9.1550    -0.5150    -0.3120 cf         1 KGD      -0.160000
     12 CAM          7.9420    -1.1620    -0.7740 cf         1 KGD      -0.074200
     13 CAN          8.0540    -2.5120    -1.4130 c3         1 KGD      -0.054900
     14 CAO          6.7700    -0.5060    -0.5830 ce         1 KGD      -0.167000
     15 CAP          5.4510    -0.9560    -0.9290 ce         1 KGD      -0.178000
     16 CAQ          4.3440    -0.2380    -0.6300 cf         1 KGD      -0.167000
     17 CAR          2.9830    -0.6270    -0.9120 cf         1 KGD      -0.068200
     18 CAS        -13.7240     0.1120    -0.5290 c3         1 KGD      -0.041200
     19 CAT        -14.5320    -0.4770     0.6400 c3         1 KGD      -0.035200
     20 CAU          2.7470    -1.9270    -1.6210 c3         1 KGD      -0.054900
     21 CAV          1.9870     0.2110    -0.5170 ce         1 KGD      -0.171000
     22 CAW        -12.6530     1.0650    -0.0810 c2         1 KGD      -0.093400
     23 CAX        -15.6150    -1.3870     0.1510 c2         1 KGD      -0.226200
     24 CAY        -15.6990    -2.7130     0.2870 c2         1 KGD      -0.109400
     25 CAZ        -13.1310     2.3220     0.5810 c3         1 KGD      -0.057900
     26 CBA        -11.3570     0.7540    -0.2670 ce         1 KGD      -0.194000
     27 CBB          0.5780     0.0210    -0.6750 ce         1 KGD      -0.176000
     28 CBC        -16.8570    -3.4750    -0.2890 c3         1 KGD      -0.056400
     29 CBD        -14.6930    -3.5660     1.0020 c3         1 KGD      -0.056400
     30 CBE        -10.2070     1.5290     0.1370 ce         1 KGD      -0.163000
     31 CBF         -8.9430     1.1270    -0.1100 cf         1 KGD      -0.183000
     32 CBG         -0.3400     0.9170    -0.2350 cf         1 KGD      -0.166000
     33 CBH         -7.7330     1.8230     0.2720 cf         1 KGD      -0.058200
     34 CBI         -1.7500     0.7140    -0.3800 cf         1 KGD      -0.181000
     35 CBJ         -6.5440     1.2630    -0.0700 ce         1 KGD      -0.183000
     36 CBK         -7.8610     3.1110     1.0290 c3         1 KGD      -0.055900
     37 CBL         -2.7510     1.5250     0.0570 ce         1 KGD      -0.058200
     38 CBM         -5.2280     1.7620     0.2080 cf         1 KGD      -0.166000
     39 CBN         -4.1110     1.1050    -0.1850 ce         1 KGD      -0.179000
     40 CBO         -2.5210     2.8120     0.7910 c3         1 KGD      -0.055900
     41 OAA         13.4680     2.6040     0.2630 o          1 KGD      -0.531100
     42 H1          12.7700    -0.0740     2.7360 hc         1 KGD       0.049200
     43 H2          14.0700    -1.2180     2.4630 hc         1 KGD       0.049200
     44 H3          14.7590     1.1220     1.8630 hc         1 KGD       0.070700
     45 H4          14.8030     0.0700     0.4610 hc         1 KGD       0.070700
     46 H5          12.6240    -2.8760    -0.5170 hc         1 KGD       0.038367
     47 H6          13.9200    -1.6870    -0.5550 hc         1 KGD       0.038367
     48 H7          13.9010    -2.9380     0.6920 hc         1 KGD       0.038367
     49 H8          10.9300    -1.6390     2.5810 hc         1 KGD       0.038367
     50 H9          10.9570    -2.9370     1.3870 hc         1 KGD       0.038367
     51 H10         12.2250    -2.8380     2.6000 hc         1 KGD       0.038367
     52 H11         10.5090    -2.0660    -0.7130 ha         1 KGD       0.179000
     53 H12         11.8440     2.3590    -1.6080 hc         1 KGD       0.048367
     54 H13         10.5040     1.2180    -1.6520 hc         1 KGD       0.048367
     55 H14         10.5570     2.4730    -0.4270 hc         1 KGD       0.048367
     56 H15          9.0250     0.4700     0.1260 ha         1 KGD       0.177000
     57 H16          8.4780    -3.2400    -0.7180 hc         1 KGD       0.042033
     58 H17          7.0970    -2.9050    -1.7460 hc         1 KGD       0.042033
     59 H18          8.7160    -2.4820    -2.2810 hc         1 KGD       0.042033
     60 H19          6.8200     0.4660    -0.0990 ha         1 KGD       0.170000
     61 H20          5.3450    -1.9100    -1.4330 ha         1 KGD       0.175000
     62 H22          4.4730     0.7140    -0.1210 ha         1 KGD       0.170000
     63 H23        -13.2810    -0.7080    -1.0980 hc         1 KGD       0.047700
     64 H24        -14.4150     0.6290    -1.2050 hc         1 KGD       0.047700
     65 H25        -13.8490    -0.9870     1.3210 hc         1 KGD       0.046200
     66 H26        -14.9850     0.3400     1.2100 hc         1 KGD       0.046200
     67 H27          3.2280    -2.7530    -1.0960 hc         1 KGD       0.042700
     68 H28          1.6930    -2.1720    -1.7180 hc         1 KGD       0.042700
     69 H29          3.1720    -1.9010    -2.6270 hc         1 KGD       0.042700
     70 H30          2.2840     1.1300    -0.0170 ha         1 KGD       0.169000
     71 H32        -16.4100    -0.8890    -0.4010 ha         1 KGD       0.164000
     72 H33        -13.4680     2.1310     1.6030 hc         1 KGD       0.041033
     73 H34        -12.3710     3.0990     0.6310 hc         1 KGD       0.041033
     74 H35        -13.9880     2.7320     0.0430 hc         1 KGD       0.041033
     75 H36        -11.1330    -0.1860    -0.7660 ha         1 KGD       0.169000
     76 H37          0.2200    -0.8830    -1.1580 ha         1 KGD       0.173000
     77 H39        -16.5140    -4.2340    -0.9980 hc         1 KGD       0.038867
     78 H40        -17.4030    -4.0090     0.4930 hc         1 KGD       0.038867
     79 H41        -17.5610    -2.8250    -0.8070 hc         1 KGD       0.038867
     80 H42        -15.1610    -4.0930     1.8380 hc         1 KGD       0.038867
     81 H43        -14.3030    -4.3370     0.3330 hc         1 KGD       0.038867
     82 H44        -13.8460    -3.0070     1.3920 hc         1 KGD       0.038867
     83 H45        -10.3760     2.4610     0.6660 ha         1 KGD       0.172000
     84 H47         -8.8010     0.1890    -0.6420 ha         1 KGD       0.169000
     85 H49          0.0160     1.8200     0.2500 ha         1 KGD       0.172000
     86 H52         -2.0410    -0.2010    -0.8890 ha         1 KGD       0.169000
     87 H54         -6.5810     0.3250    -0.6190 ha         1 KGD       0.169000
     88 H56         -8.3610     2.9500     1.9870 hc         1 KGD       0.042367
     89 H57         -6.9010     3.5780     1.2360 hc         1 KGD       0.042367
     90 H58         -8.4650     3.8330     0.4760 hc         1 KGD       0.042367
     91 H59         -5.1310     2.6910     0.7570 ha         1 KGD       0.174000
     92 H61         -4.2330     0.1730    -0.7300 ha         1 KGD       0.170000
     93 H62         -3.0570     3.6350     0.3160 hc         1 KGD       0.043033
     94 H63         -2.8900     2.7440     1.8160 hc         1 KGD       0.043033
     95 H64         -1.4710     3.0900     0.8390 hc         1 KGD       0.043033
@<TRIPOS>BOND
     1     1     2 1   
     2     1     3 1   
     3     1     5 1   
     4     1     6 1   
     5     2     4 1   
     6     2    42 1   
     7     2    43 1   
     8     3     7 2   
     9     3     9 1   
    10     4     8 1   
    11     4    44 1   
    12     4    45 1   
    13     5    46 1   
    14     5    47 1   
    15     5    48 1   
    16     6    49 1   
    17     6    50 1   
    18     6    51 1   
    19     7     8 1   
    20     7    10 1   
    21     8    41 2   
    22     9    11 2   
    23     9    52 1   
    24    10    53 1   
    25    10    54 1   
    26    10    55 1   
    27    11    12 1   
    28    11    56 1   
    29    12    13 1   
    30    12    14 2   
    31    13    57 1   
    32    13    58 1   
    33    13    59 1   
    34    14    15 1   
    35    14    60 1   
    36    15    16 2   
    37    15    61 1   
    38    16    17 1   
    39    16    62 1   
    40    17    20 1   
    41    17    21 2   
    42    18    19 1   
    43    18    22 1   
    44    18    63 1   
    45    18    64 1   
    46    19    23 1   
    47    19    65 1   
    48    19    66 1   
    49    20    67 1   
    50    20    68 1   
    51    20    69 1   
    52    21    27 1   
    53    21    70 1   
    54    22    25 1   
    55    22    26 2   
    56    23    24 2   
    57    23    71 1   
    58    24    28 1   
    59    24    29 1   
    60    25    72 1   
    61    25    73 1   
    62    25    74 1   
    63    26    30 1   
    64    26    75 1   
    65    27    32 2   
    66    27    76 1   
    67    28    77 1   
    68    28    78 1   
    69    28    79 1   
    70    29    80 1   
    71    29    81 1   
    72    29    82 1   
    73    30    31 2   
    74    30    83 1   
    75    31    33 1   
    76    31    84 1   
    77    32    34 1   
    78    32    85 1   
    79    33    35 2   
    80    33    36 1   
    81    34    37 2   
    82    34    86 1   
    83    35    38 1   
    84    35    87 1   
    85    36    88 1   
    86    36    89 1   
    87    36    90 1   
    88    37    39 1   
    89    37    40 1   
    90    38    39 2   
    91    38    91 1   
    92    39    92 1   
    93    40    93 1   
    94    40    94 1   
    95    40    95 1   
@<TRIPOS>SUBSTRUCTURE
     1 KGD         1 TEMP              0 ****  ****    0 ROOT
