@<TRIPOS>MOLECULE
KGD
   95    95     1     0     0
SMALL
No Charge or Current Charge


@<TRIPOS>ATOM
      1 CAB         12.7490    -1.3510     0.9520 c6         1 KGD      -0.014800
      2 CAC         13.7400    -0.4540     1.7410 c6         1 KGD      -0.064400
      3 CAD         11.7570    -0.4090     0.1320 ce         1 KGD      -0.013200
      4 CAE         14.4240     0.5820     0.8340 c6         1 KGD      -0.177400
      5 CAF         13.5410    -2.3520     0.0100 c3         1 KGD      -0.082600
      6 CAG         12.0110    -2.2640     2.0190 c3         1 KGD      -0.082600
      7 CAH         12.0960     0.8760    -0.2820 cf         1 KGD      -0.190400
      8 CAI         13.4290     1.4690     0.0880 c          1 KGD       0.571300
      9 CAJ         10.4940    -1.0770    -0.2360 ce         1 KGD      -0.188000
     10 CAK         11.2150     1.7900    -1.1880 c3         1 KGD      -0.046900
     11 CAL          9.2510    -0.5130    -0.1940 cf         1 KGD      -0.160000
     12 CAM          7.9750    -1.1560    -0.5250 cf         1 KGD      -0.074200
     13 CAN          8.0270    -2.4540    -1.3270 c3         1 KGD      -0.054900
     14 CAO          6.7990    -0.5570    -0.1700 ce         1 KGD      -0.167000
     15 CAP          5.4350    -1.0530    -0.4180 ce         1 KGD      -0.178000
     16 CAQ          4.3060    -0.3600    -0.0930 cf         1 KGD      -0.167000
     17 CAR          2.9160    -0.7770    -0.3050 cf         1 KGD      -0.068200
     18 CAS        -14.0810     0.2960    -0.1230 c3         1 KGD      -0.041200
     19 CAT        -14.5400    -0.6570     1.0000 c3         1 KGD      -0.035200
     20 CAU          2.6590    -2.2510    -0.6130 c3         1 KGD      -0.054900
     21 CAV          1.9040     0.1310    -0.1630 ce         1 KGD      -0.171000
     22 CAW        -12.8680     1.1290     0.2690 c2         1 KGD      -0.093400
     23 CAX        -15.7170    -1.5190     0.5790 c2         1 KGD      -0.226200
     24 CAY        -15.6780    -2.7130    -0.0410 c2         1 KGD      -0.109400
     25 CAZ        -13.2050     2.2700     1.2200 c3         1 KGD      -0.057900
     26 CBA        -11.6210     0.8370    -0.1720 ce         1 KGD      -0.194000
     27 CBB          0.4610    -0.1050    -0.3360 ce         1 KGD      -0.176000
     28 CBC        -16.9350    -3.4910    -0.3860 c3         1 KGD      -0.056400
     29 CBD        -14.4140    -3.4380    -0.4800 c3         1 KGD      -0.056400
     30 CBE        -10.3950     1.5640     0.1890 ce         1 KGD      -0.163000
     31 CBF         -9.1590     1.2550    -0.2970 cf         1 KGD      -0.183000
     32 CBG         -0.4960     0.8360    -0.1180 cf         1 KGD      -0.166000
     33 CBH         -7.8860     1.9120     0.0180 cf         1 KGD      -0.058200
     34 CBI         -1.9280     0.6030    -0.2900 cf         1 KGD      -0.181000
     35 CBJ         -6.7110     1.2770    -0.2850 ce         1 KGD      -0.183000
     36 CBK         -7.9500     3.3190     0.6150 c3         1 KGD      -0.055900
     37 CBL         -2.9400     1.5110    -0.1480 ce         1 KGD      -0.058200
     38 CBM         -5.4680     1.7900    -0.0370 cf         1 KGD      -0.166000
     39 CBN         -4.3400     1.0920    -0.3620 ce         1 KGD      -0.179000
     40 CBO         -2.6920     2.9860     0.1620 c3         1 KGD      -0.055900
     41 OAA         13.7250     2.6320    -0.1640 o          1 KGD      -0.531100
     42 H1          13.2030     0.0780     2.5400 hc         1 KGD       0.049200
     43 H2          14.5010    -1.0690     2.2420 hc         1 KGD       0.049200
     44 H3          15.1420     1.2100     1.3770 hc         1 KGD       0.070700
     45 H4          14.9960     0.0450     0.0670 hc         1 KGD       0.070700
     46 H5          12.8660    -3.0820    -0.4510 hc         1 KGD       0.038367
     47 H6          14.0440    -1.8260    -0.8100 hc         1 KGD       0.038367
     48 H7          14.3030    -2.9130     0.5650 hc         1 KGD       0.038367
     49 H8          11.3940    -1.6610     2.6960 hc         1 KGD       0.038367
     50 H9          11.3520    -3.0020     1.5460 hc         1 KGD       0.038367
     51 H10         12.7270    -2.8220     2.6350 hc         1 KGD       0.038367
     52 H11         10.5830    -2.1270    -0.5120 ha         1 KGD       0.179000
     53 H12         11.8170     2.4230    -1.8500 hc         1 KGD       0.048367
     54 H13         10.5620     1.2040    -1.8440 hc         1 KGD       0.048367
     55 H14         10.5810     2.4510    -0.5850 hc         1 KGD       0.048367
     56 H15          9.1840     0.5170     0.1600 ha         1 KGD       0.177000
     57 H16          8.0450    -3.3270    -0.6640 hc         1 KGD       0.042033
     58 H17          7.1680    -2.5600    -1.9990 hc         1 KGD       0.042033
     59 H18          8.9100    -2.5040    -1.9730 hc         1 KGD       0.042033
     60 H19          6.8590     0.3880     0.3730 ha         1 KGD       0.170000
     61 H20          5.3380    -2.0290    -0.8900 ha         1 KGD       0.175000
     62 H22          4.4420     0.6250     0.3580 ha         1 KGD       0.170000
     63 H23        -13.8510    -0.3040    -1.0120 hc         1 KGD       0.047700
     64 H24        -14.9170     0.9440    -0.4130 hc         1 KGD       0.047700
     65 H25        -13.6920    -1.2800     1.3090 hc         1 KGD       0.046200
     66 H26        -14.8140    -0.0710     1.8860 hc         1 KGD       0.046200
     67 H27          3.4060    -2.9040    -0.1470 hc         1 KGD       0.042700
     68 H28          1.6930    -2.5940    -0.2290 hc         1 KGD       0.042700
     69 H29          2.6760    -2.4370    -1.6930 hc         1 KGD       0.042700
     70 H30          2.1800     1.1560     0.0910 ha         1 KGD       0.169000
     71 H32        -16.6820    -1.0840     0.8470 ha         1 KGD       0.164000
     72 H33        -12.9720     1.9940     2.2560 hc         1 KGD       0.041033
     73 H34        -12.6400     3.1770     0.9780 hc         1 KGD       0.041033
     74 H35        -14.2670     2.5410     1.1820 hc         1 KGD       0.041033
     75 H36        -11.4850    -0.0100    -0.8460 ha         1 KGD       0.169000
     76 H37          0.1420    -1.0920    -0.6710 ha         1 KGD       0.173000
     77 H39        -17.0160    -3.6530    -1.4680 hc         1 KGD       0.038867
     78 H40        -16.9380    -4.4740     0.1010 hc         1 KGD       0.038867
     79 H41        -17.8420    -2.9640    -0.0650 hc         1 KGD       0.038867
     80 H42        -14.3090    -4.3950     0.0440 hc         1 KGD       0.038867
     81 H43        -14.4380    -3.6500    -1.5550 hc         1 KGD       0.038867
     82 H44        -13.5030    -2.8600    -0.2900 hc         1 KGD       0.038867
     83 H45        -10.4950     2.3800     0.9040 ha         1 KGD       0.172000
     84 H47         -9.0960     0.4060    -0.9810 ha         1 KGD       0.169000
     85 H49         -0.1720     1.8230     0.2160 ha         1 KGD       0.172000
     86 H52         -2.2090    -0.4200    -0.5450 ha         1 KGD       0.169000
     87 H54         -6.7750     0.2880    -0.7450 ha         1 KGD       0.169000
     88 H56         -7.8320     3.2920     1.7050 hc         1 KGD       0.042367
     89 H57         -7.1730     3.9760     0.2080 hc         1 KGD       0.042367
     90 H58         -8.8960     3.8260     0.3930 hc         1 KGD       0.042367
     91 H59         -5.3650     2.7630     0.4430 ha         1 KGD       0.174000
     92 H61         -4.4660     0.1060    -0.8150 ha         1 KGD       0.170000
     93 H62         -3.4320     3.6360    -0.3180 hc         1 KGD       0.043033
     94 H63         -2.7280     3.1750     1.2410 hc         1 KGD       0.043033
     95 H64         -1.7200     3.3310    -0.2060 hc         1 KGD       0.043033
@<TRIPOS>BOND
     1     1     2 1   
     2     1     3 1   
     3     1     5 1   
     4     1     6 1   
     5     2     4 1   
     6     2    42 1   
     7     2    43 1   
     8     3     7 2   
     9     3     9 1   
    10     4     8 1   
    11     4    44 1   
    12     4    45 1   
    13     5    46 1   
    14     5    47 1   
    15     5    48 1   
    16     6    49 1   
    17     6    50 1   
    18     6    51 1   
    19     7     8 1   
    20     7    10 1   
    21     8    41 2   
    22     9    11 2   
    23     9    52 1   
    24    10    53 1   
    25    10    54 1   
    26    10    55 1   
    27    11    12 1   
    28    11    56 1   
    29    12    13 1   
    30    12    14 2   
    31    13    57 1   
    32    13    58 1   
    33    13    59 1   
    34    14    15 1   
    35    14    60 1   
    36    15    16 2   
    37    15    61 1   
    38    16    17 1   
    39    16    62 1   
    40    17    20 1   
    41    17    21 2   
    42    18    19 1   
    43    18    22 1   
    44    18    63 1   
    45    18    64 1   
    46    19    23 1   
    47    19    65 1   
    48    19    66 1   
    49    20    67 1   
    50    20    68 1   
    51    20    69 1   
    52    21    27 1   
    53    21    70 1   
    54    22    25 1   
    55    22    26 2   
    56    23    24 2   
    57    23    71 1   
    58    24    28 1   
    59    24    29 1   
    60    25    72 1   
    61    25    73 1   
    62    25    74 1   
    63    26    30 1   
    64    26    75 1   
    65    27    32 2   
    66    27    76 1   
    67    28    77 1   
    68    28    78 1   
    69    28    79 1   
    70    29    80 1   
    71    29    81 1   
    72    29    82 1   
    73    30    31 2   
    74    30    83 1   
    75    31    33 1   
    76    31    84 1   
    77    32    34 1   
    78    32    85 1   
    79    33    35 2   
    80    33    36 1   
    81    34    37 2   
    82    34    86 1   
    83    35    38 1   
    84    35    87 1   
    85    36    88 1   
    86    36    89 1   
    87    36    90 1   
    88    37    39 1   
    89    37    40 1   
    90    38    39 2   
    91    38    91 1   
    92    39    92 1   
    93    40    93 1   
    94    40    94 1   
    95    40    95 1   
@<TRIPOS>SUBSTRUCTURE
     1 KGD         1 TEMP              0 ****  ****    0 ROOT
