@<TRIPOS>MOLECULE
KGE
   20    20     1     0     0
SMALL
No Charge or Current Charge


@<TRIPOS>ATOM
      1 O1          45.1970   -11.4880    -5.8490 oh         1 KGE      -0.646000
      2 C1          45.6770   -12.8340    -5.6760 c3         1 KGE       0.157600
      3 C2          46.6860   -13.2950    -6.7880 c6         1 KGE       0.144500
      4 N1          47.9530   -12.4960    -6.7430 n7         1 KGE      -0.851400
      5 C3          48.9990   -13.0490    -7.6320 c6         1 KGE       0.192000
      6 C4          48.4410   -13.3040    -9.0270 c2         1 KGE      -0.224200
      7 C5          47.1260   -13.4250    -9.2940 c2         1 KGE      -0.198200
      8 C6          46.0510   -13.2760    -8.2260 c6         1 KGE       0.208500
      9 O2          45.0900   -14.3290    -8.3980 oh         1 KGE      -0.662000
     10 H1          44.6770   -11.2650    -5.0460 ho         1 KGE       0.439000
     11 H2          44.8290   -13.5310    -5.6690 h1         1 KGE       0.018200
     12 H3          46.1760   -12.9290    -4.7020 h1         1 KGE       0.018200
     13 H4          46.9480   -14.3380    -6.5530 h1         1 KGE       0.036700
     14 H5          48.3120   -12.4820    -5.7810 hn         1 KGE       0.416000
     15 H7          49.3730   -13.9960    -7.2140 h1         1 KGE       0.037700
     16 H8          49.8470   -12.3500    -7.6850 h1         1 KGE       0.037700
     17 H9          49.1820   -13.4050    -9.8220 ha         1 KGE       0.178000
     18 H10         46.7740   -13.6150   -10.3080 ha         1 KGE       0.185000
     19 H11         45.5720   -12.2970    -8.3790 h1         1 KGE       0.070700
     20 H12         44.3130   -14.0880    -7.8480 ho         1 KGE       0.441000
@<TRIPOS>BOND
     1     1     2 1   
     2     1    10 1   
     3     2     3 1   
     4     2    11 1   
     5     2    12 1   
     6     3     4 1   
     7     3     8 1   
     8     3    13 1   
     9     4     5 1   
    10     4    14 1   
    11     5     6 1   
    12     5    15 1   
    13     5    16 1   
    14     6     7 2   
    15     6    17 1   
    16     7     8 1   
    17     7    18 1   
    18     8     9 1   
    19     8    19 1   
    20     9    20 1   
@<TRIPOS>SUBSTRUCTURE
     1 KGE         1 TEMP              0 ****  ****    0 ROOT
