@<TRIPOS>MOLECULE
KGE
   20    20     1     0     0
SMALL
abcg2


@<TRIPOS>ATOM
      1 O1          45.2960   -11.5920    -5.8570 oh         1 KGE      -0.646000
      2 C1          45.7490   -12.9130    -5.6770 c3         1 KGE       0.157600
      3 C2          46.6990   -13.3030    -6.7940 c6         1 KGE       0.144500
      4 N1          47.8850   -12.4660    -6.7900 n7         1 KGE      -0.851400
      5 C3          48.9430   -13.0060    -7.6190 c6         1 KGE       0.192000
      6 C4          48.4190   -13.3870    -8.9660 c2         1 KGE      -0.224200
      7 C5          47.1200   -13.4630    -9.2280 c2         1 KGE      -0.198200
      8 C6          46.0690   -13.2040    -8.1880 c6         1 KGE       0.208500
      9 O2          45.0410   -14.1580    -8.3730 oh         1 KGE      -0.662000
     10 H1          44.6260   -11.4130    -5.1910 ho         1 KGE       0.439000
     11 H2          44.9180   -13.6300    -5.6580 h1         1 KGE       0.018200
     12 H3          46.2740   -13.0320    -4.7190 h1         1 KGE       0.018200
     13 H4          46.9420   -14.3670    -6.6220 h1         1 KGE       0.036700
     14 H5          48.2250   -12.3510    -5.8430 hn         1 KGE       0.416000
     15 H7          49.4340   -13.8890    -7.1760 h1         1 KGE       0.037700
     16 H8          49.7290   -12.2540    -7.7340 h1         1 KGE       0.037700
     17 H9          49.1500   -13.6040    -9.7360 ha         1 KGE       0.178000
     18 H10         46.7750   -13.7220   -10.2240 ha         1 KGE       0.185000
     19 H11         45.6750   -12.1890    -8.3290 h1         1 KGE       0.070700
     20 H12         44.2530   -13.8510    -7.9160 ho         1 KGE       0.441000
@<TRIPOS>BOND
     1     1     2 1   
     2     1    10 1   
     3     2     3 1   
     4     2    11 1   
     5     2    12 1   
     6     3     4 1   
     7     3     8 1   
     8     3    13 1   
     9     4     5 1   
    10     4    14 1   
    11     5     6 1   
    12     5    15 1   
    13     5    16 1   
    14     6     7 2   
    15     6    17 1   
    16     7     8 1   
    17     7    18 1   
    18     8     9 1   
    19     8    19 1   
    20     9    20 1   
@<TRIPOS>SUBSTRUCTURE
     1 KGE         1 TEMP              0 ****  ****    0 ROOT
