@<TRIPOS>MOLECULE
KGG
   51    54     1     0     0
SMALL
No Charge or Current Charge


@<TRIPOS>ATOM
      1 C1          -4.0750     4.7270     0.0520 c3         1 KGG       0.149900
      2 O2          -3.7000     3.7180    -0.9020 os         1 KGG      -0.343100
      3 C3          -3.0050     2.5830    -0.5360 ca         1 KGG       0.138100
      4 C4          -2.6840     1.6570    -1.5380 ca         1 KGG      -0.174000
      5 C5          -1.9780     0.4830    -1.2270 ca         1 KGG      -0.055000
      6 C6          -1.5810     0.2010     0.1030 ca         1 KGG      -0.101300
      7 C7          -1.9020     1.1510     1.1010 ca         1 KGG      -0.055000
      8 C8          -2.6080     2.3260     0.7910 ca         1 KGG      -0.174000
      9 C9          -0.7870    -1.0800     0.4680 c5         1 KGG       0.248800
     10 C10         -1.6770    -1.9080     1.4830 c5         1 KGG      -0.096400
     11 C11         -2.5060    -2.7760     0.5190 c5         1 KGG       0.084000
     12 C12         -1.5260    -2.8590    -0.6470 c2         1 KGG       0.582200
     13 N13         -0.5760    -2.0150    -0.6910 n2         1 KGG      -0.664900
     14 N14         -1.5690    -3.8630    -1.5730 nv         1 KGG      -1.032200
     15 O15         -3.7080    -2.0280     0.1720 os         1 KGG      -0.431000
     16 C16         -4.6240    -2.6410    -0.7510 c3         1 KGG       0.141900
     17 C17          0.5480    -0.6980     1.1550 ca         1 KGG      -0.061300
     18 C18          0.6910    -0.5580     2.5580 ca         1 KGG      -0.105000
     19 C19          1.9190    -0.1820     3.1220 ca         1 KGG      -0.116000
     20 C20          3.0270     0.0730     2.3020 ca         1 KGG      -0.099000
     21 C21          2.9260    -0.0340     0.8950 cp         1 KGG      -0.042000
     22 C22          1.6740    -0.4150     0.3480 ca         1 KGG      -0.068000
     23 C23          4.1020     0.2480     0.0110 cp         1 KGG      -0.078000
     24 C24          5.0740     1.2200     0.3550 ca         1 KGG      -0.067000
     25 C25          6.1570     1.4430    -0.5120 ca         1 KGG      -0.165000
     26 C26          6.2520     0.6980    -1.6980 ca         1 KGG       0.332900
     27 N27          5.3410    -0.2350    -2.0520 nb         1 KGG      -0.668000
     28 C28          4.2970    -0.4470    -1.2140 ca         1 KGG       0.344900
     29 H11C        -4.6190     5.5390    -0.4480 h1         1 KGG       0.038367
     30 H12C        -4.7290     4.3070     0.8270 h1         1 KGG       0.038367
     31 H13C        -3.1880     5.1580     0.5340 h1         1 KGG       0.038367
     32 H4          -2.9830     1.8510    -2.5640 ha         1 KGG       0.119000
     33 H8          -2.8330     3.0230     1.5920 ha         1 KGG       0.119000
     34 H5          -1.7450    -0.2050    -2.0360 ha         1 KGG       0.117000
     35 H7          -1.6020     0.9830     2.1320 ha         1 KGG       0.117000
     36 H101        -1.0610    -2.5690     2.1040 hc         1 KGG       0.068200
     37 H102        -2.2920    -1.3070     2.1600 hc         1 KGG       0.068200
     38 H11         -2.7750    -3.7490     0.9490 h1         1 KGG       0.047700
     39 H141        -1.9710    -4.7320    -1.2380 hn         1 KGG       0.477500
     40 H142        -0.7010    -3.9660    -2.0870 hn         1 KGG       0.477500
     41 H161        -4.9490    -3.6230    -0.3840 h1         1 KGG       0.032700
     42 H162        -5.5140    -2.0110    -0.8780 h1         1 KGG       0.032700
     43 H163        -4.1600    -2.7710    -1.7370 h1         1 KGG       0.032700
     44 H18         -0.1470    -0.7260     3.2300 ha         1 KGG       0.108000
     45 H22          1.5690    -0.4770    -0.7320 ha         1 KGG       0.138000
     46 H19          2.0130    -0.0870     4.2020 ha         1 KGG       0.111000
     47 H20          3.9710     0.3500     2.7640 ha         1 KGG       0.112000
     48 H24          4.9850     1.8010     1.2690 ha         1 KGG       0.120000
     49 H28          3.5920    -1.2150    -1.5300 h4         1 KGG       0.023100
     50 H25          6.9140     2.1840    -0.2740 ha         1 KGG       0.122000
     51 H26          7.0830     0.8530    -2.3860 h4         1 KGG       0.017100
@<TRIPOS>BOND
     1     1     2 1   
     2     1    29 1   
     3     1    30 1   
     4     1    31 1   
     5     2     3 1   
     6     3     4 ar  
     7     3     8 ar  
     8     4     5 ar  
     9     4    32 1   
    10     5     6 ar  
    11     5    34 1   
    12     6     7 ar  
    13     6     9 1   
    14     7     8 ar  
    15     7    35 1   
    16     8    33 1   
    17     9    10 1   
    18     9    13 1   
    19     9    17 1   
    20    10    11 1   
    21    10    36 1   
    22    10    37 1   
    23    11    12 1   
    24    11    15 1   
    25    11    38 1   
    26    12    13 2   
    27    12    14 1   
    28    14    39 1   
    29    14    40 1   
    30    15    16 1   
    31    16    41 1   
    32    16    42 1   
    33    16    43 1   
    34    17    18 ar  
    35    17    22 ar  
    36    18    19 ar  
    37    18    44 1   
    38    19    20 ar  
    39    19    46 1   
    40    20    21 ar  
    41    20    47 1   
    42    21    22 ar  
    43    21    23 1   
    44    22    45 1   
    45    23    24 ar  
    46    23    28 ar  
    47    24    25 ar  
    48    24    48 1   
    49    25    26 ar  
    50    25    50 1   
    51    26    27 ar  
    52    26    51 1   
    53    27    28 ar  
    54    28    49 1   
@<TRIPOS>SUBSTRUCTURE
     1 KGG         1 TEMP              0 ****  ****    0 ROOT
