@<TRIPOS>MOLECULE
KGG
   51    54     1     0     0
SMALL
bcc


@<TRIPOS>ATOM
      1 C1          -4.2390     4.6410     0.1640 c3         1 KGG       0.126700
      2 O2          -3.5240     3.9060    -0.8070 os         1 KGG      -0.319900
      3 C3          -2.9080     2.7680    -0.4230 ca         1 KGG       0.138100
      4 C4          -2.2500     2.0470    -1.4190 ca         1 KGG      -0.192000
      5 C5          -1.6010     0.8640    -1.1140 ca         1 KGG      -0.073000
      6 C6          -1.5840     0.3550     0.1830 ca         1 KGG      -0.101300
      7 C7          -2.2310     1.0930     1.1660 ca         1 KGG      -0.073000
      8 C8          -2.8920     2.2820     0.8810 ca         1 KGG      -0.192000
      9 C9          -0.8220    -0.9300     0.5100 c5         1 KGG       0.248800
     10 C10         -1.6230    -1.8830     1.4300 c5         1 KGG      -0.096400
     11 C11         -2.3710    -2.7650     0.4500 c5         1 KGG       0.060800
     12 C12         -1.4120    -2.6910    -0.7300 c2         1 KGG       0.582200
     13 N13         -0.6000    -1.7050    -0.7030 n2         1 KGG      -0.664900
     14 N14         -1.5020    -3.5680    -1.7500 nv         1 KGG      -0.921800
     15 O15         -3.6150    -2.1900     0.1360 os         1 KGG      -0.384600
     16 C16         -4.4860    -3.0230    -0.5920 c3         1 KGG       0.118700
     17 C17          0.5120    -0.5270     1.1220 ca         1 KGG      -0.061300
     18 C18          0.6190    -0.2360     2.4800 ca         1 KGG      -0.123000
     19 C19          1.8310     0.1680     3.0210 ca         1 KGG      -0.134000
     20 C20          2.9540     0.2870     2.2170 ca         1 KGG      -0.117000
     21 C21          2.8690     0.0030     0.8540 cp         1 KGG      -0.042000
     22 C22          1.6430    -0.3990     0.3230 ca         1 KGG      -0.086000
     23 C23          4.0570     0.1140    -0.0110 cp         1 KGG      -0.143300
     24 C24          5.0060     1.1210     0.1590 ca         1 KGG      -0.085000
     25 C25          6.1050     1.1680    -0.6810 ca         1 KGG      -0.248300
     26 C26          6.2250     0.2080    -1.6740 ca         1 KGG       0.398200
     27 N27          5.3340    -0.7610    -1.8520 nb         1 KGG      -0.668000
     28 C28          4.2870    -0.8010    -1.0400 ca         1 KGG       0.410200
     29 H11C        -4.6740     5.4950    -0.3510 h1         1 KGG       0.038367
     30 H12C        -5.0450     4.0520     0.6100 h1         1 KGG       0.038367
     31 H13C        -3.5900     5.0080     0.9630 h1         1 KGG       0.038367
     32 H4          -2.2550     2.4170    -2.4380 ha         1 KGG       0.137000
     33 H8          -3.3870     2.8060     1.6870 ha         1 KGG       0.137000
     34 H5          -1.1040     0.3200    -1.9060 ha         1 KGG       0.135000
     35 H7          -2.2380     0.7520     2.1940 ha         1 KGG       0.135000
     36 H101        -0.9250    -2.5050     1.9940 hc         1 KGG       0.068200
     37 H102        -2.2840    -1.3950     2.1460 hc         1 KGG       0.068200
     38 H11         -2.5030    -3.7920     0.8200 h1         1 KGG       0.047700
     39 H141        -1.9210    -4.4670    -1.5850 hn         1 KGG       0.422300
     40 H142        -0.7860    -3.5500    -2.4580 hn         1 KGG       0.422300
     41 H161        -4.6210    -3.9960    -0.1040 h1         1 KGG       0.032700
     42 H162        -5.4550    -2.5260    -0.6350 h1         1 KGG       0.032700
     43 H163        -4.1480    -3.2000    -1.6170 h1         1 KGG       0.032700
     44 H18         -0.2420    -0.3250     3.1310 ha         1 KGG       0.126000
     45 H22          1.5550    -0.6060    -0.7350 ha         1 KGG       0.156000
     46 H19          1.9030     0.3780     4.0800 ha         1 KGG       0.129000
     47 H20          3.8990     0.5780     2.6580 ha         1 KGG       0.130000
     48 H24          4.8790     1.8690     0.9310 ha         1 KGG       0.138000
     49 H28          3.5910    -1.6180    -1.1980 h4         1 KGG       0.023100
     50 H25          6.8550     1.9400    -0.5740 ha         1 KGG       0.140000
     51 H26          7.0720     0.2200    -2.3500 h4         1 KGG       0.017100
@<TRIPOS>BOND
     1     1     2 1   
     2     1    29 1   
     3     1    30 1   
     4     1    31 1   
     5     2     3 1   
     6     3     4 ar  
     7     3     8 ar  
     8     4     5 ar  
     9     4    32 1   
    10     5     6 ar  
    11     5    34 1   
    12     6     7 ar  
    13     6     9 1   
    14     7     8 ar  
    15     7    35 1   
    16     8    33 1   
    17     9    10 1   
    18     9    13 1   
    19     9    17 1   
    20    10    11 1   
    21    10    36 1   
    22    10    37 1   
    23    11    12 1   
    24    11    15 1   
    25    11    38 1   
    26    12    13 2   
    27    12    14 1   
    28    14    39 1   
    29    14    40 1   
    30    15    16 1   
    31    16    41 1   
    32    16    42 1   
    33    16    43 1   
    34    17    18 ar  
    35    17    22 ar  
    36    18    19 ar  
    37    18    44 1   
    38    19    20 ar  
    39    19    46 1   
    40    20    21 ar  
    41    20    47 1   
    42    21    22 ar  
    43    21    23 1   
    44    22    45 1   
    45    23    24 ar  
    46    23    28 ar  
    47    24    25 ar  
    48    24    48 1   
    49    25    26 ar  
    50    25    50 1   
    51    26    27 ar  
    52    26    51 1   
    53    27    28 ar  
    54    28    49 1   
@<TRIPOS>SUBSTRUCTURE
     1 KGG         1 TEMP              0 ****  ****    0 ROOT
