@<TRIPOS>MOLECULE
KGH
   28    28     1     0     0
SMALL
No Charge or Current Charge


@<TRIPOS>ATOM
      1 C1         -23.1850     3.0580   -29.6340 c6         1 KGH       0.130300
      2 C2         -23.7760     4.4970   -29.5370 c6         1 KGH      -0.093700
      3 C3         -22.6070     5.5420   -29.3980 c6         1 KGH       0.142500
      4 C4         -21.2560     5.1080   -30.0900 c6         1 KGH       0.132300
      5 C5         -21.5480     4.1990   -31.3280 c6         1 KGH       0.191300
      6 C6         -22.3460     2.9020   -30.9520 c6         1 KGH       0.194300
      7 C8         -24.8280     4.6580   -28.3910 c3         1 KGH       0.161600
      8 O8         -25.4490     5.9520   -28.3880 oh         1 KGH      -0.671000
      9 O1         -24.2010     2.0360   -29.5920 oh         1 KGH      -0.726000
     10 O6         -21.4720     1.7540   -30.8450 oh         1 KGH      -0.680000
     11 O5         -20.3480     3.8250   -32.0290 oh         1 KGH      -0.679000
     12 N1         -23.0780     6.8580   -29.8760 n8         1 KGH      -1.005200
     13 O2         -20.3790     4.4630   -29.1380 oh         1 KGH      -0.690000
     14 H1         -22.5050     2.9210   -28.7790 h1         1 KGH       0.058700
     15 H2         -24.3240     4.6890   -30.4700 hc         1 KGH       0.087700
     16 H3         -22.4060     5.6740   -28.3240 h1         1 KGH       0.017700
     17 H4         -20.7550     6.0150   -30.4610 h1         1 KGH       0.034700
     18 H5         -22.1850     4.7890   -32.0030 h1         1 KGH       0.052700
     19 H6         -23.0570     2.7310   -31.7740 h1         1 KGH       0.043700
     20 H7         -25.6050     3.8920   -28.5090 h1         1 KGH       0.021700
     21 H8         -24.3300     4.4770   -27.4280 h1         1 KGH       0.021700
     22 H9         -26.1260     5.9430   -27.6750 ho         1 KGH       0.448000
     23 H10        -24.4410     1.8960   -28.6470 ho         1 KGH       0.503000
     24 H11        -22.0450     1.0250   -30.5110 ho         1 KGH       0.501000
     25 H12        -20.2160     2.8960   -31.7130 ho         1 KGH       0.496000
     26 H13        -24.0300     6.9690   -29.4960 hn         1 KGH       0.406500
     27 H14        -22.5480     7.5950   -29.3960 hn         1 KGH       0.406500
     28 H16        -19.9840     5.1760   -28.5860 ho         1 KGH       0.492000
@<TRIPOS>BOND
     1     1     2 1   
     2     1     6 1   
     3     1     9 1   
     4     1    14 1   
     5     2     3 1   
     6     2     7 1   
     7     2    15 1   
     8     3     4 1   
     9     3    12 1   
    10     3    16 1   
    11     4     5 1   
    12     4    13 1   
    13     4    17 1   
    14     5     6 1   
    15     5    11 1   
    16     5    18 1   
    17     6    10 1   
    18     6    19 1   
    19     7     8 1   
    20     7    20 1   
    21     7    21 1   
    22     8    22 1   
    23     9    23 1   
    24    10    24 1   
    25    11    25 1   
    26    12    26 1   
    27    12    27 1   
    28    13    28 1   
@<TRIPOS>SUBSTRUCTURE
     1 KGH         1 TEMP              0 ****  ****    0 ROOT
