@<TRIPOS>MOLECULE
KGH
   28    28     1     0     0
SMALL
bcc


@<TRIPOS>ATOM
      1 C1         -23.2670     3.0590   -29.6180 c6         1 KGH       0.107100
      2 C2         -23.7790     4.5000   -29.5340 c6         1 KGH      -0.093700
      3 C3         -22.5960     5.4790   -29.3520 c6         1 KGH       0.142500
      4 C4         -21.2740     4.9350   -29.9360 c6         1 KGH       0.109100
      5 C5         -21.5910     4.1280   -31.1810 c6         1 KGH       0.168100
      6 C6         -22.3930     2.8590   -30.8580 c6         1 KGH       0.171100
      7 C8         -24.8040     4.6390   -28.4170 c3         1 KGH       0.138400
      8 O8         -25.2700     5.9710   -28.3660 oh         1 KGH      -0.608800
      9 O1         -24.3050     2.0980   -29.7010 oh         1 KGH      -0.603800
     10 O6         -21.5280     1.7600   -30.7090 oh         1 KGH      -0.557800
     11 O5         -20.4570     3.7720   -31.9330 oh         1 KGH      -0.556800
     12 N1         -22.8920     6.7310   -30.0350 n8         1 KGH      -0.894800
     13 O2         -20.5490     4.1340   -29.0330 oh         1 KGH      -0.567800
     14 H1         -22.6480     2.8600   -28.7340 h1         1 KGH       0.058700
     15 H2         -24.2710     4.7450   -30.4850 hc         1 KGH       0.087700
     16 H3         -22.4360     5.6180   -28.2690 h1         1 KGH       0.017700
     17 H4         -20.6710     5.8080   -30.2340 h1         1 KGH       0.034700
     18 H5         -22.2560     4.7710   -31.7730 h1         1 KGH       0.052700
     19 H6         -23.0780     2.6880   -31.7040 h1         1 KGH       0.043700
     20 H7         -25.6370     3.9490   -28.5940 h1         1 KGH       0.021700
     21 H8         -24.3340     4.3480   -27.4660 h1         1 KGH       0.021700
     22 H9         -25.8650     6.0550   -27.6150 ho         1 KGH       0.409000
     23 H10        -24.6170     1.8970   -28.8150 ho         1 KGH       0.404000
     24 H11        -22.0780     0.9810   -30.5800 ho         1 KGH       0.402000
     25 H12        -20.0820     4.5800   -32.2950 ho         1 KGH       0.397000
     26 H13        -23.7810     7.0880   -29.7110 hn         1 KGH       0.351300
     27 H14        -22.2020     7.4270   -29.7750 hn         1 KGH       0.351300
     28 H16        -20.3680     4.6590   -28.2480 ho         1 KGH       0.393000
@<TRIPOS>BOND
     1     1     2 1   
     2     1     6 1   
     3     1     9 1   
     4     1    14 1   
     5     2     3 1   
     6     2     7 1   
     7     2    15 1   
     8     3     4 1   
     9     3    12 1   
    10     3    16 1   
    11     4     5 1   
    12     4    13 1   
    13     4    17 1   
    14     5     6 1   
    15     5    11 1   
    16     5    18 1   
    17     6    10 1   
    18     6    19 1   
    19     7     8 1   
    20     7    20 1   
    21     7    21 1   
    22     8    22 1   
    23     9    23 1   
    24    10    24 1   
    25    11    25 1   
    26    12    26 1   
    27    12    27 1   
    28    13    28 1   
@<TRIPOS>SUBSTRUCTURE
     1 KGH         1 TEMP              0 ****  ****    0 ROOT
