@<TRIPOS>MOLECULE
KGI
   81    86     1     0     0
SMALL
No Charge or Current Charge


@<TRIPOS>ATOM
      1 N1          16.4730     7.2060    12.7060 ns         1 KGI      -0.491900
      2 C7          18.8460    10.8410    12.5960 cc         1 KGI       0.508700
      3 C8          20.6730    10.8460    11.4720 ca         1 KGI      -0.080600
      4 N2          19.7910    10.0980    13.3350 na         1 KGI      -0.304300
      5 C9          20.9440    10.1100    12.5980 ca         1 KGI       0.134500
      6 O1          19.6740     8.0240    14.5470 os         1 KGI      -0.432000
      7 C1          15.7950     6.0380    12.9620 c          1 KGI       0.593100
      8 O5          15.9310    10.9540     7.9440 oh         1 KGI      -0.682000
      9 C5          18.4660     9.7530    15.6340 c5         1 KGI       0.096300
     10 C6          17.4580     8.5900    15.2890 c5         1 KGI       0.120300
     11 N3          19.3590    11.3130    11.4500 nd         1 KGI      -0.542100
     12 C4          19.6710     9.4630    14.6660 c5         1 KGI       0.313300
     13 O4          15.7800     9.0830    10.7130 os         1 KGI      -0.449000
     14 C3          18.3050     7.5670    14.4470 c5         1 KGI       0.111300
     15 O3          17.0050     8.0390    16.5270 oh         1 KGI      -0.698000
     16 C2          17.9000     7.4240    12.9550 c3         1 KGI       0.087000
     17 N4          22.1550     9.5580    12.8160 nb         1 KGI      -0.210000
     18 N           13.4500     4.8430    12.8410 n8         1 KGI      -0.987200
     19 C           14.2920     6.0490    12.5150 c3         1 KGI       0.071800
     20 O           16.3450     5.0710    13.4790 o          1 KGI      -0.635100
     21 C10         23.0820     9.7710    11.8520 ca         1 KGI       0.163900
     22 C11         21.7000    11.0170    10.5220 ca         1 KGI       0.443900
     23 C13         16.2890    11.1650    13.1360 c1         1 KGI      -0.023100
     24 C14         14.8510    11.2160    13.4340 c3         1 KGI       0.236900
     25 C15         13.6440     9.8730    11.6760 c3         1 KGI       0.176800
     26 C16         14.7050    10.0240    10.5470 c5         1 KGI       0.123300
     27 C17         16.5370     9.0680     9.4850 c5         1 KGI       0.262300
     28 C18         15.5780     9.6280     8.3630 c5         1 KGI       0.134300
     29 C19         14.2090     9.6800     9.1140 c5         1 KGI       0.148300
     30 C20         16.3620     6.6150     8.8360 cc         1 KGI       0.407700
     31 C21         18.3770     5.9790     9.2420 ca         1 KGI      -0.092600
     32 C22         18.3540     7.3170     9.5460 ca         1 KGI       0.136500
     33 C23         20.5650     7.2270    10.1240 ca         1 KGI       0.183900
     34 C24         19.5900     5.2820     9.4130 ca         1 KGI       0.449900
     35 C25         13.0410     9.6350    14.0780 c3         1 KGI       0.016800
     36 C26         11.8280    10.6230    14.2020 c          1 KGI       0.688000
     37 N10         19.4440     7.9750     9.9850 nb         1 KGI      -0.219000
     38 N11         20.6930     5.9030     9.8620 nb         1 KGI      -0.297000
     39 N12         19.7180     3.9540     9.1440 nv         1 KGI      -1.065900
     40 N5          22.9140    10.4760    10.7060 nb         1 KGI      -0.310000
     41 N6          21.5310    11.7240     9.3720 nv         1 KGI      -1.072900
     42 N7          14.1330     9.9500    13.0910 n3         1 KGI      -0.737600
     43 N8          17.0730     7.7220     9.3070 na         1 KGI      -0.296300
     44 N9          17.1360     5.5140     8.7940 nd         1 KGI      -0.548100
     45 O6          13.3370    10.6710     8.5400 oh         1 KGI      -0.687000
     46 O7          11.9330    11.5850    14.9520 o          1 KGI      -0.727500
     47 O8          10.8220    10.3970    13.5410 o          1 KGI      -0.727500
     48 H1          15.9510     7.9490    12.2420 hn         1 KGI       0.359500
     49 H3          18.0230    10.7390    15.4420 h1         1 KGI       0.075700
     50 H4          16.6050     8.9590    14.7040 h1         1 KGI       0.109700
     51 H5          20.5950     9.7710    15.1730 h2         1 KGI       0.121700
     52 H6          18.2440     6.5650    14.8940 h1         1 KGI       0.096700
     53 H7          17.6340     8.4850    17.1590 ho         1 KGI       0.506000
     54 H8          18.4610     6.5860    12.5220 h1         1 KGI       0.068200
     55 H9          18.1880     8.3200    12.4000 h1         1 KGI       0.068200
     56 H10         12.5340     4.9250    12.3820 hn         1 KGI       0.399000
     57 H11         13.8700     4.0090    12.4100 hn         1 KGI       0.399000
     58 H13         13.8240     6.9330    12.9680 h1         1 KGI       0.049700
     59 H14         14.2850     6.1980    11.4260 h1         1 KGI       0.049700
     60 H15         24.0640     9.3290    12.0130 h5         1 KGI       0.041100
     61 H16         14.4060    12.0780    12.9170 h1         1 KGI       0.081700
     62 H17         14.7690    11.4220    14.5100 h1         1 KGI       0.081700
     63 H18         12.8780    10.6430    11.5090 h1         1 KGI       0.055700
     64 H19         13.1480     8.9050    11.5230 h1         1 KGI       0.055700
     65 H20         15.1160    11.0420    10.5800 h1         1 KGI       0.080700
     66 H21         17.4040     9.7350     9.5810 h2         1 KGI       0.110700
     67 H22         15.5280     8.9570     7.4950 h1         1 KGI       0.051700
     68 H23         13.7300     8.6910     9.1010 h1         1 KGI       0.034700
     69 H24         15.3140     6.6690     8.5650 h5         1 KGI       0.062800
     70 H25         21.4540     7.7420    10.4820 h5         1 KGI       0.050100
     71 H26         12.6170     8.6480    13.8500 h1         1 KGI       0.045700
     72 H27         13.4760     9.5460    15.0830 h1         1 KGI       0.045700
     73 H28         20.5060     3.4580     9.5520 hn         1 KGI       0.503500
     74 H29         18.8600     3.4250     9.0130 hn         1 KGI       0.503500
     75 H30         22.1920    11.5700     8.6160 hn         1 KGI       0.503500
     76 H31         20.5770    11.9550     9.1070 hn         1 KGI       0.503500
     77 H34         12.4080    10.3840     8.7110 ho         1 KGI       0.512000
     78 O2          18.8520     9.6670    17.0340 oh         1 KGI      -0.722000
     79 C12         17.4760    11.0450    12.9020 cg         1 KGI      -0.216200
     80 H2          15.0530    11.4100     7.8930 ho         1 KGI       0.500000
     81 H33         19.3520    10.4900    17.2630 ho         1 KGI       0.516000
@<TRIPOS>BOND
     1     1     7 1   
     2     1    16 1   
     3     1    48 1   
     4     2     4 1   
     5     2    11 2   
     6     2    79 1   
     7     3     5 ar  
     8     3    11 1   
     9     3    22 ar  
    10     4     5 1   
    11     4    12 1   
    12     5    17 ar  
    13     6    12 1   
    14     6    14 1   
    15     7    19 1   
    16     7    20 2   
    17     8    28 1   
    18     8    80 1   
    19     9    10 1   
    20     9    12 1   
    21     9    49 1   
    22     9    78 1   
    23    10    14 1   
    24    10    15 1   
    25    10    50 1   
    26    12    51 1   
    27    13    26 1   
    28    13    27 1   
    29    14    16 1   
    30    14    52 1   
    31    15    53 1   
    32    16    54 1   
    33    16    55 1   
    34    17    21 ar  
    35    18    19 1   
    36    18    56 1   
    37    18    57 1   
    38    19    58 1   
    39    19    59 1   
    40    21    40 ar  
    41    21    60 1   
    42    22    40 ar  
    43    22    41 1   
    44    23    24 1   
    45    23    79 3   
    46    24    42 1   
    47    24    61 1   
    48    24    62 1   
    49    25    26 1   
    50    25    42 1   
    51    25    63 1   
    52    25    64 1   
    53    26    29 1   
    54    26    65 1   
    55    27    28 1   
    56    27    43 1   
    57    27    66 1   
    58    28    29 1   
    59    28    67 1   
    60    29    45 1   
    61    29    68 1   
    62    30    43 1   
    63    30    44 2   
    64    30    69 1   
    65    31    32 ar  
    66    31    34 ar  
    67    31    44 1   
    68    32    37 ar  
    69    32    43 1   
    70    33    37 ar  
    71    33    38 ar  
    72    33    70 1   
    73    34    38 ar  
    74    34    39 1   
    75    35    36 1   
    76    35    42 1   
    77    35    71 1   
    78    35    72 1   
    79    36    46 1   
    80    36    47 1   
    81    39    73 1   
    82    39    74 1   
    83    41    75 1   
    84    41    76 1   
    85    45    77 1   
    86    78    81 1   
@<TRIPOS>SUBSTRUCTURE
     1 KGI         1 TEMP              0 ****  ****    0 ROOT
