@<TRIPOS>MOLECULE
KGI
   81    86     1     0     0
SMALL
abcg2


@<TRIPOS>ATOM
      1 N1          16.0720     7.2230    12.9850 ns         1 KGI      -0.491900
      2 C7          18.8490    10.9140    12.4790 cc         1 KGI       0.508700
      3 C8          20.6720    11.0000    11.3550 ca         1 KGI      -0.080600
      4 N2          19.7850    10.1720    13.2060 na         1 KGI      -0.304300
      5 C9          20.9520    10.2230    12.4760 ca         1 KGI       0.134500
      6 O1          19.5050     8.0100    14.1730 os         1 KGI      -0.432000
      7 C1          15.6360     5.9680    12.7830 c          1 KGI       0.593100
      8 O5          16.1190    10.9940     7.9630 oh         1 KGI      -0.682000
      9 C5          18.6180     9.7950    15.4360 c5         1 KGI       0.096300
     10 C6          17.4880     8.7330    15.2430 c5         1 KGI       0.120300
     11 N3          19.3660    11.4240    11.3750 nd         1 KGI      -0.542100
     12 C4          19.7040     9.3800    14.4400 c5         1 KGI       0.313300
     13 O4          15.8330     9.1880    10.7240 os         1 KGI      -0.449000
     14 C3          18.1130     7.6640    14.3250 c5         1 KGI       0.111300
     15 O3          17.0170     8.2180    16.4740 oh         1 KGI      -0.698000
     16 C2          17.4780     7.5640    12.9390 c3         1 KGI       0.087000
     17 N4          22.1240     9.6460    12.7590 nb         1 KGI      -0.210000
     18 N           13.7050     4.4540    12.7570 n8         1 KGI      -0.987200
     19 C           14.1430     5.8280    12.5370 c3         1 KGI       0.071800
     20 O           16.3880     4.9910    12.7440 o          1 KGI      -0.635100
     21 C10         23.0390     9.8890    11.8210 ca         1 KGI       0.163900
     22 C11         21.7170    11.1720    10.4230 ca         1 KGI       0.443900
     23 C13         16.3250    11.1330    13.1050 c1         1 KGI      -0.023100
     24 C14         14.9020    11.1290    13.4320 c3         1 KGI       0.236900
     25 C15         13.7290     9.8860    11.6570 c3         1 KGI       0.176800
     26 C16         14.7850    10.1500    10.6080 c5         1 KGI       0.123300
     27 C17         16.5510     9.1430     9.5000 c5         1 KGI       0.262300
     28 C18         15.6270     9.7390     8.4050 c5         1 KGI       0.134300
     29 C19         14.3080     9.9480     9.1640 c5         1 KGI       0.148300
     30 C20         16.2140     6.6670     9.0660 cc         1 KGI       0.407700
     31 C21         18.1830     5.9350     9.4460 ca         1 KGI      -0.092600
     32 C22         18.2620     7.3200     9.5590 ca         1 KGI       0.136500
     33 C23         20.4050     7.2460    10.0980 ca         1 KGI       0.183900
     34 C24         19.3650     5.2150     9.7070 ca         1 KGI       0.449900
     35 C25         13.2370     9.4380    13.9970 c3         1 KGI       0.016800
     36 C26         12.0130    10.3450    14.2820 c          1 KGI       0.688000
     37 N10         19.3500     8.0280     9.8770 nb         1 KGI      -0.219000
     38 N11         20.4710     5.9120    10.0350 nb         1 KGI      -0.297000
     39 N12         19.4340     3.8760     9.6360 nv         1 KGI      -1.065900
     40 N5          22.9040    10.5960    10.6940 nb         1 KGI      -0.310000
     41 N6          21.5730    11.8770     9.2930 nv         1 KGI      -1.072900
     42 N7          14.2400     9.8790    13.0290 n3         1 KGI      -0.737600
     43 N8          16.9900     7.7840     9.3010 na         1 KGI      -0.296300
     44 N9          16.8900     5.5480     9.1320 nd         1 KGI      -0.548100
     45 O6          13.5460    11.0080     8.6270 oh         1 KGI      -0.687000
     46 O7          11.9480    11.4670    13.7240 o          1 KGI      -0.727500
     47 O8          11.1780     9.8550    15.0840 o          1 KGI      -0.727500
     48 H1          15.4170     8.0020    12.9330 hn         1 KGI       0.359500
     49 H3          18.2570    10.8060    15.2690 h1         1 KGI       0.075700
     50 H4          16.6270     9.1880    14.7640 h1         1 KGI       0.109700
     51 H5          20.6840     9.4810    14.8990 h2         1 KGI       0.121700
     52 H6          18.0730     6.6930    14.8180 h1         1 KGI       0.096700
     53 H7          17.7850     8.1090    17.0560 ho         1 KGI       0.506000
     54 H8          18.0090     6.8050    12.3700 h1         1 KGI       0.068200
     55 H9          17.5670     8.5110    12.4150 h1         1 KGI       0.068200
     56 H10         12.7880     4.3200    12.3450 hn         1 KGI       0.399000
     57 H11         14.3410     3.8280    12.2740 hn         1 KGI       0.399000
     58 H13         13.6000     6.5000    13.2020 h1         1 KGI       0.049700
     59 H14         13.9730     6.1900    11.5120 h1         1 KGI       0.049700
     60 H15         24.0190     9.4530    11.9860 h5         1 KGI       0.041100
     61 H16         14.4190    12.0110    12.9970 h1         1 KGI       0.081700
     62 H17         14.8070    11.2340    14.5140 h1         1 KGI       0.081700
     63 H18         12.9350    10.6340    11.5280 h1         1 KGI       0.055700
     64 H19         13.2950     8.9010    11.4690 h1         1 KGI       0.055700
     65 H20         15.1930    11.1630    10.7060 h1         1 KGI       0.080700
     66 H21         17.4560     9.7490     9.5660 h2         1 KGI       0.110700
     67 H22         15.5100     9.0550     7.5630 h1         1 KGI       0.051700
     68 H23         13.7490     9.0070     9.1230 h1         1 KGI       0.034700
     69 H24         15.1580     6.7500     8.8590 h5         1 KGI       0.062800
     70 H25         21.3260     7.7510    10.3680 h5         1 KGI       0.050100
     71 H26         12.8520     8.4720    13.6640 h1         1 KGI       0.045700
     72 H27         13.7390     9.2570    14.9510 h1         1 KGI       0.045700
     73 H28         20.2770     3.4060     9.9200 hn         1 KGI       0.503500
     74 H29         18.6020     3.3300     9.4860 hn         1 KGI       0.503500
     75 H30         22.3360    11.9370     8.6390 hn         1 KGI       0.503500
     76 H31         20.6840    12.2770     9.0450 hn         1 KGI       0.503500
     77 H34         12.6340    10.9050     8.9240 ho         1 KGI       0.512000
     78 O2          19.2060     9.6880    16.7300 oh         1 KGI      -0.722000
     79 C12         17.5000    11.0670    12.8530 cg         1 KGI      -0.216200
     80 H2          16.8930    10.8380     7.4070 ho         1 KGI       0.500000
     81 H33         18.6860    10.2200    17.3460 ho         1 KGI       0.516000
@<TRIPOS>BOND
     1     1     7 1   
     2     1    16 1   
     3     1    48 1   
     4     2     4 1   
     5     2    11 2   
     6     2    79 1   
     7     3     5 ar  
     8     3    11 1   
     9     3    22 ar  
    10     4     5 1   
    11     4    12 1   
    12     5    17 ar  
    13     6    12 1   
    14     6    14 1   
    15     7    19 1   
    16     7    20 2   
    17     8    28 1   
    18     8    80 1   
    19     9    10 1   
    20     9    12 1   
    21     9    49 1   
    22     9    78 1   
    23    10    14 1   
    24    10    15 1   
    25    10    50 1   
    26    12    51 1   
    27    13    26 1   
    28    13    27 1   
    29    14    16 1   
    30    14    52 1   
    31    15    53 1   
    32    16    54 1   
    33    16    55 1   
    34    17    21 ar  
    35    18    19 1   
    36    18    56 1   
    37    18    57 1   
    38    19    58 1   
    39    19    59 1   
    40    21    40 ar  
    41    21    60 1   
    42    22    40 ar  
    43    22    41 1   
    44    23    24 1   
    45    23    79 3   
    46    24    42 1   
    47    24    61 1   
    48    24    62 1   
    49    25    26 1   
    50    25    42 1   
    51    25    63 1   
    52    25    64 1   
    53    26    29 1   
    54    26    65 1   
    55    27    28 1   
    56    27    43 1   
    57    27    66 1   
    58    28    29 1   
    59    28    67 1   
    60    29    45 1   
    61    29    68 1   
    62    30    43 1   
    63    30    44 2   
    64    30    69 1   
    65    31    32 ar  
    66    31    34 ar  
    67    31    44 1   
    68    32    37 ar  
    69    32    43 1   
    70    33    37 ar  
    71    33    38 ar  
    72    33    70 1   
    73    34    38 ar  
    74    34    39 1   
    75    35    36 1   
    76    35    42 1   
    77    35    71 1   
    78    35    72 1   
    79    36    46 1   
    80    36    47 1   
    81    39    73 1   
    82    39    74 1   
    83    41    75 1   
    84    41    76 1   
    85    45    77 1   
    86    78    81 1   
@<TRIPOS>SUBSTRUCTURE
     1 KGI         1 TEMP              0 ****  ****    0 ROOT
