@<TRIPOS>MOLECULE
KGK
   20    20     1     0     0
SMALL
abcg2


@<TRIPOS>ATOM
      1 C4          32.9130    -1.0450    12.7560 ca         1 KGK      -0.311500
      2 C5          33.8780    -2.0300    12.9230 ca         1 KGK       0.244500
      3 C6          34.7940    -2.3030    11.9340 ca         1 KGK       0.115500
      4 N           32.6710    -0.1930    15.2660 n8         1 KGK      -1.042100
      5 O           30.8250     0.2840    13.6630 o          1 KGK      -0.527500
      6 C1          34.7940    -1.6210    10.7250 ca         1 KGK      -0.056300
      7 C2          33.8310    -0.6420    10.5720 ca         1 KGK       0.115500
      8 C3          32.9000    -0.3510    11.5570 ca         1 KGK       0.244500
      9 F           33.7700     0.0590     9.4400 f          1 KGK      -0.150000
     10 F1          32.0210     0.6070    11.3080 f          1 KGK      -0.129500
     11 F2          33.9430    -2.7050    14.0670 f          1 KGK      -0.129500
     12 F3          35.7060    -3.2500    12.1480 f          1 KGK      -0.150000
     13 O1          31.1980    -2.0850    14.3940 o          1 KGK      -0.527500
     14 S           31.7240    -0.7760    14.0630 sy         1 KGK       1.175600
     15 H1          32.2880     0.6330    15.7110 hn         1 KGK       0.493500
     16 H2          32.9810    -0.8860    15.9370 hn         1 KGK       0.493500
     17 H3          36.7960    -1.6040     9.9780 hc         1 KGK       0.065367
     18 H4          35.8550    -3.0090     9.4860 hc         1 KGK       0.065367
     19 H5          35.5680    -1.4490     8.7270 hc         1 KGK       0.065367
     20 C           35.8050    -1.9370     9.6680 c3         1 KGK      -0.053800
@<TRIPOS>BOND
     1     1     2 ar  
     2     1     8 ar  
     3     1    14 1   
     4     2     3 ar  
     5     2    11 1   
     6     3     6 ar  
     7     3    12 1   
     8     4    14 1   
     9     4    15 1   
    10     4    16 1   
    11     5    14 2   
    12     6     7 ar  
    13     6    20 1   
    14     7     8 ar  
    15     7     9 1   
    16     8    10 1   
    17    13    14 2   
    18    17    20 1   
    19    18    20 1   
    20    19    20 1   
@<TRIPOS>SUBSTRUCTURE
     1 KGK         1 TEMP              0 ****  ****    0 ROOT
