@<TRIPOS>MOLECULE
KGK
   20    20     1     0     0
SMALL
No Charge or Current Charge


@<TRIPOS>ATOM
      1 C4          32.9370    -1.1120    12.7860 ca         1 KGK      -0.311500
      2 C5          33.8780    -2.1560    12.9120 ca         1 KGK       0.244500
      3 C6          34.8070    -2.4160    11.8830 ca         1 KGK       0.115500
      4 N           32.7040    -0.1150    15.2500 n8         1 KGK      -1.042100
      5 O           30.8110     0.2390    13.7740 o          1 KGK      -0.527500
      6 C1          34.8170    -1.6390    10.7060 ca         1 KGK      -0.056300
      7 C2          33.8860    -0.5860    10.5880 ca         1 KGK       0.115500
      8 C3          32.9560    -0.3220    11.6150 ca         1 KGK       0.244500
      9 F           33.8860     0.1910     9.4770 f          1 KGK      -0.150000
     10 F1          32.0920     0.7040    11.4440 f          1 KGK      -0.129500
     11 F2          33.9240    -2.9220    14.0280 f          1 KGK      -0.129500
     12 F3          35.7050    -3.4200    12.0360 f          1 KGK      -0.150000
     13 O1          31.3550    -2.0560    14.7380 o          1 KGK      -0.527500
     14 S           31.7730    -0.8070    14.1080 sy         1 KGK       1.175600
     15 H1          32.1530     0.7190    15.4420 hn         1 KGK       0.493500
     16 H2          32.4720    -0.7080    16.0440 hn         1 KGK       0.493500
     17 H3          36.7470    -1.3420     9.7460 hc         1 KGK       0.065367
     18 H4          36.1030    -2.9800     9.5480 hc         1 KGK       0.065367
     19 H5          35.4300    -1.6560     8.6050 hc         1 KGK       0.065367
     20 C           35.8270    -1.9190     9.5920 c3         1 KGK      -0.053800
@<TRIPOS>BOND
     1     1     2 ar  
     2     1     8 ar  
     3     1    14 1   
     4     2     3 ar  
     5     2    11 1   
     6     3     6 ar  
     7     3    12 1   
     8     4    14 1   
     9     4    15 1   
    10     4    16 1   
    11     5    14 2   
    12     6     7 ar  
    13     6    20 1   
    14     7     8 ar  
    15     7     9 1   
    16     8    10 1   
    17    13    14 2   
    18    17    20 1   
    19    18    20 1   
    20    19    20 1   
@<TRIPOS>SUBSTRUCTURE
     1 KGK         1 TEMP              0 ****  ****    0 ROOT
