@<TRIPOS>MOLECULE
KGM
   45    45     1     0     0
SMALL
abcg2


@<TRIPOS>ATOM
      1 O6           1.6050    -3.3150     0.9440 oh         1 KGM      -0.715000
      2 C6           2.7360    -2.6280     0.4610 c3         1 KGM       0.169600
      3 C5           2.3150    -1.2430     0.0190 c6         1 KGM       0.172300
      4 C10         -4.5770     0.5810    -0.4380 c3         1 KGM      -0.074400
      5 O5           1.8520    -0.5600     1.1710 os         1 KGM      -0.456000
      6 C4           3.4720    -0.4810    -0.6300 c6         1 KGM       0.147300
      7 O4           3.8070    -1.1500    -1.8230 oh         1 KGM      -0.724000
      8 C3           3.0430     0.9550    -0.9080 c6         1 KGM       0.143300
      9 O3           4.1490     1.6290    -1.4610 oh         1 KGM      -0.653000
     10 C2           2.5260     1.6190     0.3640 c6         1 KGM       0.123300
     11 O2           3.5960     1.7430     1.2660 oh         1 KGM      -0.692000
     12 C1           1.4160     0.7520     0.9680 c6         1 KGM       0.355300
     13 O1           0.3110     0.8360     0.1300 os         1 KGM      -0.492000
     14 C7          -0.8620     0.2090     0.6210 c3         1 KGM       0.165600
     15 C8          -2.0560     0.7090    -0.1660 c3         1 KGM      -0.082400
     16 C9          -3.3520     0.0580     0.3010 c3         1 KGM      -0.074400
     17 C13         -8.4060    -0.1480    -0.2040 c3         1 KGM      -0.088100
     18 C12         -7.1080     0.4860    -0.6870 c3         1 KGM      -0.075400
     19 C11         -5.8790    -0.0570     0.0320 c3         1 KGM      -0.075400
     20 H131        -8.4030    -1.2270    -0.3690 hc         1 KGM       0.031700
     21 H132        -8.5510     0.0200     0.8650 hc         1 KGM       0.031700
     22 H133        -9.2710     0.2640    -0.7250 hc         1 KGM       0.031700
     23 H121        -6.9990     0.3250    -1.7640 hc         1 KGM       0.036200
     24 H122        -7.1570     1.5710    -0.5470 hc         1 KGM       0.036200
     25 H111        -5.8250    -1.1420    -0.1110 hc         1 KGM       0.037700
     26 H112        -5.9900     0.1010     1.1100 hc         1 KGM       0.037700
     27 H101        -4.6400     1.6670    -0.3100 hc         1 KGM       0.037700
     28 H102        -4.4560     0.4100    -1.5140 hc         1 KGM       0.037700
     29 H91C        -3.4790     0.2280     1.3760 hc         1 KGM       0.040200
     30 H92C        -3.2850    -1.0280     0.1720 hc         1 KGM       0.040200
     31 H81C        -2.1320     1.7950    -0.0590 hc         1 KGM       0.049200
     32 H82C        -1.9080     0.5050    -1.2310 hc         1 KGM       0.049200
     33 H71C        -0.7830    -0.8810     0.5340 h1         1 KGM       0.036700
     34 H72C        -0.9940     0.4380     1.6870 h1         1 KGM       0.036700
     35 H1           1.1610     1.1180     1.9740 h2         1 KGM       0.063700
     36 H2           2.1000     2.6010     0.1130 h1         1 KGM       0.047700
     37 HA           3.3010     2.2570     2.0240 ho         1 KGM       0.503000
     38 H3           2.2120     0.9190    -1.6260 h1         1 KGM       0.060700
     39 HB           3.8370     2.4180    -1.9130 ho         1 KGM       0.448000
     40 H4           4.3250    -0.4730     0.0650 h1         1 KGM       0.068700
     41 HC           4.4940    -0.6390    -2.2640 ho         1 KGM       0.522000
     42 H5           1.5090    -1.3400    -0.7240 h1         1 KGM       0.066700
     43 H61C         3.5150    -2.5320     1.2300 h1         1 KGM       0.036200
     44 H62C         3.1870    -3.1440    -0.3920 h1         1 KGM       0.036200
     45 H6           1.8790    -4.2030     1.1870 ho         1 KGM       0.502000
@<TRIPOS>BOND
     1     1     2 1   
     2     1    45 1   
     3     2     3 1   
     4     2    43 1   
     5     2    44 1   
     6     3     5 1   
     7     3     6 1   
     8     3    42 1   
     9     4    16 1   
    10     4    19 1   
    11     4    27 1   
    12     4    28 1   
    13     5    12 1   
    14     6     7 1   
    15     6     8 1   
    16     6    40 1   
    17     7    41 1   
    18     8     9 1   
    19     8    10 1   
    20     8    38 1   
    21     9    39 1   
    22    10    11 1   
    23    10    12 1   
    24    10    36 1   
    25    11    37 1   
    26    12    13 1   
    27    12    35 1   
    28    13    14 1   
    29    14    15 1   
    30    14    33 1   
    31    14    34 1   
    32    15    16 1   
    33    15    31 1   
    34    15    32 1   
    35    16    29 1   
    36    16    30 1   
    37    17    18 1   
    38    17    20 1   
    39    17    21 1   
    40    17    22 1   
    41    18    19 1   
    42    18    23 1   
    43    18    24 1   
    44    19    25 1   
    45    19    26 1   
@<TRIPOS>SUBSTRUCTURE
     1 KGM         1 TEMP              0 ****  ****    0 ROOT
