@<TRIPOS>MOLECULE
KGM
   45    45     1     0     0
SMALL
No Charge or Current Charge


@<TRIPOS>ATOM
      1 O6           1.3650    -3.3230     0.9930 oh         1 KGM      -0.715000
      2 C6           2.4270    -2.6810     0.2550 c3         1 KGM       0.169600
      3 C5           2.1490    -1.1730    -0.0570 c6         1 KGM       0.172300
      4 C10         -4.5470     0.4560    -0.4640 c3         1 KGM      -0.074400
      5 O5           1.8960    -0.4830     1.2010 os         1 KGM      -0.456000
      6 C4           3.3340    -0.4960    -0.8150 c6         1 KGM       0.147300
      7 O4           3.5790    -1.1070    -2.0990 oh         1 KGM      -0.724000
      8 C3           3.0420     1.0260    -1.0020 c6         1 KGM       0.143300
      9 O3           4.1690     1.6750    -1.6190 oh         1 KGM      -0.653000
     10 C2           2.7310     1.6980     0.3680 c6         1 KGM       0.123300
     11 O2           3.9440     1.7220     1.1680 oh         1 KGM      -0.692000
     12 C1           1.5580     0.9160     1.0640 c6         1 KGM       0.355300
     13 O1           0.3360     1.0390     0.3100 os         1 KGM      -0.492000
     14 C7          -0.8480     0.5080     0.9280 c3         1 KGM       0.165600
     15 C8          -2.0230     0.7480    -0.0390 c3         1 KGM      -0.082400
     16 C9          -3.3680     0.2180     0.5050 c3         1 KGM      -0.074400
     17 C13         -8.4130    -0.3650    -0.3460 c3         1 KGM      -0.088100
     18 C12         -7.0710     0.1640    -0.8880 c3         1 KGM      -0.075400
     19 C11         -5.8920    -0.0740     0.0800 c3         1 KGM      -0.075400
     20 H131        -8.3610    -1.4460    -0.1690 hc         1 KGM       0.031700
     21 H132        -8.6730     0.1290     0.5980 hc         1 KGM       0.031700
     22 H133        -9.2180    -0.1740    -1.0660 hc         1 KGM       0.031700
     23 H121        -6.8580    -0.3230    -1.8480 hc         1 KGM       0.036200
     24 H122        -7.1670     1.2380    -1.0880 hc         1 KGM       0.036200
     25 H111        -5.8010    -1.1490     0.2790 hc         1 KGM       0.037700
     26 H112        -6.1100     0.4120     1.0390 hc         1 KGM       0.037700
     27 H101        -4.6380     1.5310    -0.6630 hc         1 KGM       0.037700
     28 H102        -4.3300    -0.0300    -1.4230 hc         1 KGM       0.037700
     29 H91C        -3.5850     0.7040     1.4640 hc         1 KGM       0.040200
     30 H92C        -3.2760    -0.8580     0.7040 hc         1 KGM       0.040200
     31 H81C        -2.1100     1.8240    -0.2350 hc         1 KGM       0.049200
     32 H82C        -1.8020     0.2600    -0.9960 hc         1 KGM       0.049200
     33 H71C        -0.7440    -0.5690     1.1160 h1         1 KGM       0.036700
     34 H72C        -1.0480     1.0110     1.8840 h1         1 KGM       0.036700
     35 H1           1.3990     1.3460     2.0640 h2         1 KGM       0.063700
     36 H2           2.3890     2.7270     0.1820 h1         1 KGM       0.047700
     37 HA           3.7270     2.1630     2.0240 ho         1 KGM       0.503000
     38 H3           2.1550     1.1300    -1.6450 h1         1 KGM       0.060700
     39 HB           4.7240     1.9690    -0.8590 ho         1 KGM       0.448000
     40 H4           4.2310    -0.5960    -0.1840 h1         1 KGM       0.068700
     41 HC           4.0960    -0.4350    -2.6070 ho         1 KGM       0.522000
     42 H5           1.2460    -1.1210    -0.6820 h1         1 KGM       0.066700
     43 H61C         3.3680    -2.7440     0.8190 h1         1 KGM       0.036200
     44 H62C         2.5860    -3.2040    -0.6980 h1         1 KGM       0.036200
     45 H6           1.6680    -4.2390     1.1940 ho         1 KGM       0.502000
@<TRIPOS>BOND
     1     1     2 1   
     2     1    45 1   
     3     2     3 1   
     4     2    43 1   
     5     2    44 1   
     6     3     5 1   
     7     3     6 1   
     8     3    42 1   
     9     4    16 1   
    10     4    19 1   
    11     4    27 1   
    12     4    28 1   
    13     5    12 1   
    14     6     7 1   
    15     6     8 1   
    16     6    40 1   
    17     7    41 1   
    18     8     9 1   
    19     8    10 1   
    20     8    38 1   
    21     9    39 1   
    22    10    11 1   
    23    10    12 1   
    24    10    36 1   
    25    11    37 1   
    26    12    13 1   
    27    12    35 1   
    28    13    14 1   
    29    14    15 1   
    30    14    33 1   
    31    14    34 1   
    32    15    16 1   
    33    15    31 1   
    34    15    32 1   
    35    16    29 1   
    36    16    30 1   
    37    17    18 1   
    38    17    20 1   
    39    17    21 1   
    40    17    22 1   
    41    18    19 1   
    42    18    23 1   
    43    18    24 1   
    44    19    25 1   
    45    19    26 1   
@<TRIPOS>SUBSTRUCTURE
     1 KGM         1 TEMP              0 ****  ****    0 ROOT
