@<TRIPOS>MOLECULE
KGN
   42    42     1     0     0
SMALL
No Charge or Current Charge


@<TRIPOS>ATOM
      1 P1          -1.2020    -2.9520    -2.3010 p5         1 KGN       1.340067
      2 P2          -3.7650    -0.6210     1.5970 p5         1 KGN       1.340067
      3 P3          -2.1980     3.3110    -0.8060 p5         1 KGN       1.340067
      4 P4           2.1770     3.3790     0.7710 p5         1 KGN       1.340067
      5 P5           3.8420    -0.5530    -1.5680 p5         1 KGN       1.340067
      6 P6           1.3360    -2.8820     2.3680 p5         1 KGN       1.340067
      7 C1          -0.7200    -1.4400    -0.1410 c6         1 KGN       0.215467
      8 C2          -1.4030    -0.1520     0.4540 c6         1 KGN       0.215467
      9 C3          -0.7580     1.1520    -0.1630 c6         1 KGN       0.215467
     10 C4           0.7920     1.1740     0.1640 c6         1 KGN       0.215467
     11 C5           1.4680    -0.1240    -0.4320 c6         1 KGN       0.215467
     12 C6           0.8170    -1.4180     0.1840 c6         1 KGN       0.215467
     13 O11         -0.9570    -1.5310    -1.5740 os         1 KGN      -0.578233
     14 O12         -2.8540    -0.1940     0.3330 os         1 KGN      -0.578233
     15 O13         -1.4440     2.3640     0.2720 os         1 KGN      -0.578233
     16 O14          1.4480     2.3950    -0.2910 os         1 KGN      -0.578233
     17 O15          2.9210    -0.1280    -0.3110 os         1 KGN      -0.578233
     18 O16          1.0570    -1.4790     1.6190 os         1 KGN      -0.578233
     19 O21         -2.4610    -3.5850    -1.8220 o          1 KGN      -1.001722
     20 O22         -5.2040    -0.5580     1.2110 o          1 KGN      -1.001722
     21 O23         -1.2520     3.8320    -1.8320 o          1 KGN      -1.001722
     22 O24          1.2180     3.8930     1.7880 o          1 KGN      -1.001722
     23 O25          5.2780    -0.4480    -1.1830 o          1 KGN      -1.001722
     24 O26          1.4580    -2.6220     3.8300 o          1 KGN      -1.001722
     25 O31         -1.3290    -2.7190    -3.7660 o          1 KGN      -1.001722
     26 O32         -3.4640    -2.0120     2.0290 o          1 KGN      -1.001722
     27 O33         -3.2950     2.5850    -1.5030 o          1 KGN      -1.001722
     28 O34          3.2920     2.6910     1.4800 o          1 KGN      -1.001722
     29 O35          3.5750    -1.9580    -1.9770 o          1 KGN      -1.001722
     30 O36          0.2190    -3.8400     2.1560 o          1 KGN      -1.001722
     31 O41         -0.0620    -3.8780    -2.0730 o          1 KGN      -1.001722
     32 O42         -3.5490     0.3050     2.7440 o          1 KGN      -1.001722
     33 O43         -2.7990     4.4760    -0.0940 o          1 KGN      -1.001722
     34 O44          2.7500     4.5450     0.0400 o          1 KGN      -1.001722
     35 O45          3.6030     0.3480    -2.7290 o          1 KGN      -1.001722
     36 O46          2.6110    -3.4910     1.9000 o          1 KGN      -1.001722
     37 H1          -1.1640    -2.3220     0.3390 h1         1 KGN       0.028033
     38 H2          -1.1650    -0.1350     1.5270 h1         1 KGN       0.028033
     39 H3          -0.8550     1.0810    -1.2570 h1         1 KGN       0.028033
     40 H4           0.8900     1.1230     1.2580 h1         1 KGN       0.028033
     41 H5           1.2300    -0.1300    -1.5050 h1         1 KGN       0.028033
     42 H6           1.2830    -2.2970    -0.2810 h1         1 KGN       0.028033
@<TRIPOS>BOND
     1     1    13 1   
     2     1    19 1   
     3     1    25 1   
     4     1    31 1   
     5     2    14 1   
     6     2    20 1   
     7     2    26 1   
     8     2    32 1   
     9     3    15 1   
    10     3    21 1   
    11     3    27 1   
    12     3    33 1   
    13     4    16 1   
    14     4    22 1   
    15     4    28 1   
    16     4    34 1   
    17     5    17 1   
    18     5    23 1   
    19     5    29 1   
    20     5    35 1   
    21     6    18 1   
    22     6    24 1   
    23     6    30 1   
    24     6    36 1   
    25     7     8 1   
    26     7    12 1   
    27     7    13 1   
    28     7    37 1   
    29     8     9 1   
    30     8    14 1   
    31     8    38 1   
    32     9    10 1   
    33     9    15 1   
    34     9    39 1   
    35    10    11 1   
    36    10    16 1   
    37    10    40 1   
    38    11    12 1   
    39    11    17 1   
    40    11    41 1   
    41    12    18 1   
    42    12    42 1   
@<TRIPOS>SUBSTRUCTURE
     1 KGN         1 TEMP              0 ****  ****    0 ROOT
