@<TRIPOS>MOLECULE
KGN
   42    42     1     0     0
SMALL
abcg2


@<TRIPOS>ATOM
      1 P1          -1.3390    -2.9180    -2.2930 p5         1 KGN       1.340067
      2 P2          -3.7490    -0.6440     1.5020 p5         1 KGN       1.340067
      3 P3          -2.1330     3.2960    -0.6880 p5         1 KGN       1.340067
      4 P4           2.0980     3.3810     0.6850 p5         1 KGN       1.340067
      5 P5           3.8250    -0.5810    -1.4960 p5         1 KGN       1.340067
      6 P6           1.4630    -2.8660     2.3500 p5         1 KGN       1.340067
      7 C1          -0.6900    -1.4460    -0.1240 c6         1 KGN       0.215467
      8 C2          -1.3550    -0.1920     0.4470 c6         1 KGN       0.215467
      9 C3          -0.7330     1.0800    -0.1550 c6         1 KGN       0.215467
     10 C4           0.7740     1.1040     0.1770 c6         1 KGN       0.215467
     11 C5           1.4350    -0.1480    -0.4250 c6         1 KGN       0.215467
     12 C6           0.8180    -1.4210     0.1550 c6         1 KGN       0.215467
     13 O11         -0.9150    -1.4950    -1.5180 os         1 KGN      -0.578233
     14 O12         -2.7380    -0.2170     0.2460 os         1 KGN      -0.578233
     15 O13         -1.3710     2.2180     0.3400 os         1 KGN      -0.578233
     16 O14          1.3800     2.2570    -0.3240 os         1 KGN      -0.578233
     17 O15          2.8220    -0.1120    -0.2460 os         1 KGN      -0.578233
     18 O16          1.0460    -1.4540     1.5490 os         1 KGN      -0.578233
     19 O21         -2.7350    -3.2970    -1.7970 o          1 KGN      -1.001722
     20 O22         -5.1220    -0.5990     0.8240 o          1 KGN      -1.001722
     21 O23         -1.1030     3.8020    -1.6980 o          1 KGN      -1.001722
     22 O24          1.0000     4.0660     1.4990 o          1 KGN      -1.001722
     23 O25          5.2080    -0.3220    -0.8890 o          1 KGN      -1.001722
     24 O26          1.4520    -2.3710     3.8020 o          1 KGN      -1.001722
     25 O31         -1.3200    -2.4550    -3.7560 o          1 KGN      -1.001722
     26 O32         -3.3390    -2.0390     1.9770 o          1 KGN      -1.001722
     27 O33         -3.2750     2.5420    -1.3760 o          1 KGN      -1.001722
     28 O34          3.0800     2.6210     1.5820 o          1 KGN      -1.001722
     29 O35          3.5510    -2.0560    -1.7930 o          1 KGN      -1.001722
     30 O36          0.3930    -3.9110     2.0410 o          1 KGN      -1.001722
     31 O41         -0.2760    -3.9620    -1.9570 o          1 KGN      -1.001722
     32 O42         -3.5720     0.4170     2.5950 o          1 KGN      -1.001722
     33 O43         -2.6220     4.3630     0.2990 o          1 KGN      -1.001722
     34 O44          2.7800     4.3060    -0.3290 o          1 KGN      -1.001722
     35 O45          3.4990     0.3250    -2.6900 o          1 KGN      -1.001722
     36 O46          2.8540    -3.2620     1.8540 o          1 KGN      -1.001722
     37 H1          -1.1220    -2.3100     0.3880 h1         1 KGN       0.028033
     38 H2          -1.1270    -0.1770     1.5210 h1         1 KGN       0.028033
     39 H3          -0.8320     1.0250    -1.2500 h1         1 KGN       0.028033
     40 H4           0.8830     1.0550     1.2710 h1         1 KGN       0.028033
     41 H5           1.1960    -0.1450    -1.4970 h1         1 KGN       0.028033
     42 H6           1.2790    -2.2750    -0.3490 h1         1 KGN       0.028033
@<TRIPOS>BOND
     1     1    13 1   
     2     1    19 1   
     3     1    25 1   
     4     1    31 1   
     5     2    14 1   
     6     2    20 1   
     7     2    26 1   
     8     2    32 1   
     9     3    15 1   
    10     3    21 1   
    11     3    27 1   
    12     3    33 1   
    13     4    16 1   
    14     4    22 1   
    15     4    28 1   
    16     4    34 1   
    17     5    17 1   
    18     5    23 1   
    19     5    29 1   
    20     5    35 1   
    21     6    18 1   
    22     6    24 1   
    23     6    30 1   
    24     6    36 1   
    25     7     8 1   
    26     7    12 1   
    27     7    13 1   
    28     7    37 1   
    29     8     9 1   
    30     8    14 1   
    31     8    38 1   
    32     9    10 1   
    33     9    15 1   
    34     9    39 1   
    35    10    11 1   
    36    10    16 1   
    37    10    40 1   
    38    11    12 1   
    39    11    17 1   
    40    11    41 1   
    41    12    18 1   
    42    12    42 1   
@<TRIPOS>SUBSTRUCTURE
     1 KGN         1 TEMP              0 ****  ****    0 ROOT
