@<TRIPOS>MOLECULE
KGO
   52    55     1     0     0
SMALL
No Charge or Current Charge


@<TRIPOS>ATOM
      1 C1         -56.2600    77.9620   -11.9010 cc         1 KGO      -0.279600
      2 N2         -57.4200    77.5650   -11.2130 na         1 KGO       0.147800
      3 N3         -57.6980    76.2140   -11.3190 nc         1 KGO      -0.493800
      4 C4         -56.7160    75.7590   -12.0730 cd         1 KGO       0.233900
      5 C5         -55.8200    76.7860   -12.4490 cd         1 KGO       0.016600
      6 C6         -55.5750    79.2700   -12.0720 c          1 KGO       0.645700
      7 C7         -58.3350    78.4050   -10.4200 c3         1 KGO       0.067900
      8 O8         -54.5500    79.4120   -12.7230 o          1 KGO      -0.614100
      9 N9         -56.1700    80.3350   -11.4420 ns         1 KGO      -0.499900
     10 C10        -55.6560    81.7070   -11.4830 c3         1 KGO       0.091300
     11 N11        -54.6840    76.6580   -13.2360 ns         1 KGO      -0.343100
     12 O12        -49.7560    78.6990   -13.3090 os         1 KGO      -0.451000
     13 C13        -49.2940    78.7040   -14.6720 c5         1 KGO       0.156600
     14 C14        -50.6120    78.6900   -15.4870 c5         1 KGO      -0.141000
     15 C15        -51.4120    79.7700   -14.6850 c5         1 KGO      -0.097400
     16 C16        -50.9110    79.5700   -13.2200 c5         1 KGO       0.152600
     17 N17        -51.0400    74.9010   -15.9470 nb         1 KGO      -0.722000
     18 C18        -50.5740    76.1800   -15.9840 ca         1 KGO       0.371900
     19 C19        -51.2270    77.2800   -15.3510 ca         1 KGO       0.263300
     20 N20        -52.3890    77.0790   -14.6650 nb         1 KGO      -0.603000
     21 C21        -52.8660    75.7900   -14.6120 ca         1 KGO       0.178500
     22 C22        -52.1870    74.7120   -15.2710 ca         1 KGO       0.621900
     23 N23        -52.6200    73.3860   -15.2490 nu         1 KGO      -0.915900
     24 C24        -54.1350    75.5290   -13.8170 c          1 KGO       0.533600
     25 O25        -54.6310    74.4130   -13.6830 o          1 KGO      -0.631100
     26 C26        -52.2090    72.1730   -15.8470 ca         1 KGO       0.209000
     27 C27        -52.6170    70.9430   -15.2830 ca         1 KGO       0.068400
     28 N28        -52.2680    69.7520   -15.8170 nb         1 KGO      -0.153500
     29 C29        -51.5110    69.7930   -16.9330 ca         1 KGO       0.083900
     30 N30        -51.0770    70.9000   -17.5690 nb         1 KGO      -0.153500
     31 C31        -51.4280    72.0870   -17.0270 ca         1 KGO       0.068400
     32 H32        -56.6890    74.7060   -12.3190 h4         1 KGO       0.067100
     33 H35        -59.1480    77.7910   -10.0130 h1         1 KGO       0.061367
     34 H33        -57.7890    78.8620    -9.5870 h1         1 KGO       0.061367
     35 H34        -58.7690    79.1830   -11.0600 h1         1 KGO       0.061367
     36 H36        -57.0140    80.1530   -10.9210 hn         1 KGO       0.318500
     37 H37        -56.3140    82.3640   -10.9000 h1         1 KGO       0.044367
     38 H39        -54.6450    81.7350   -11.0570 h1         1 KGO       0.044367
     39 H38        -55.6230    82.0580   -12.5230 h1         1 KGO       0.044367
     40 H40        -54.1450    77.5000   -13.4310 hn         1 KGO       0.380500
     41 H42        -48.6440    77.8390   -14.8560 h1         1 KGO       0.047200
     42 H43        -50.4610    78.9720   -16.5350 hc         1 KGO       0.068700
     43 H44        -51.1510    80.7770   -15.0310 hc         1 KGO       0.060200
     44 H45        -52.5000    79.6890   -14.7830 hc         1 KGO       0.060200
     45 H47        -51.6680    79.0900   -12.5860 h1         1 KGO       0.053700
     46 H46        -50.6200    80.5220   -12.7560 h1         1 KGO       0.053700
     47 H48        -49.6520    76.3350   -16.5420 h4         1 KGO       0.031100
     48 H49        -53.4250    73.2930   -14.6140 hn         1 KGO       0.548000
     49 H50        -53.2290    70.9080   -14.3840 h4         1 KGO       0.041600
     50 H51        -51.2280    68.8350   -17.3680 h5         1 KGO       0.052100
     51 H52        -51.0920    72.9670   -17.5680 h4         1 KGO       0.041600
     52 H41        -48.7170    79.6220   -14.8510 h1         1 KGO       0.047200
@<TRIPOS>BOND
     1     1     2 1   
     2     1     5 2   
     3     1     6 1   
     4     2     3 1   
     5     2     7 1   
     6     3     4 2   
     7     4     5 1   
     8     4    32 1   
     9     5    11 1   
    10     6     8 2   
    11     6     9 1   
    12     7    33 1   
    13     7    34 1   
    14     7    35 1   
    15     9    10 1   
    16     9    36 1   
    17    10    37 1   
    18    10    38 1   
    19    10    39 1   
    20    11    24 1   
    21    11    40 1   
    22    12    13 1   
    23    12    16 1   
    24    13    14 1   
    25    13    41 1   
    26    13    52 1   
    27    14    15 1   
    28    14    19 1   
    29    14    42 1   
    30    15    16 1   
    31    15    43 1   
    32    15    44 1   
    33    16    45 1   
    34    16    46 1   
    35    17    18 ar  
    36    17    22 ar  
    37    18    19 ar  
    38    18    47 1   
    39    19    20 ar  
    40    20    21 ar  
    41    21    22 ar  
    42    21    24 1   
    43    22    23 1   
    44    23    26 1   
    45    23    48 1   
    46    24    25 2   
    47    26    27 ar  
    48    26    31 ar  
    49    27    28 ar  
    50    27    49 1   
    51    28    29 ar  
    52    29    30 ar  
    53    29    50 1   
    54    30    31 ar  
    55    31    51 1   
@<TRIPOS>SUBSTRUCTURE
     1 KGO         1 TEMP              0 ****  ****    0 ROOT
