@<TRIPOS>MOLECULE
KGO
   52    55     1     0     0
SMALL
abcg2


@<TRIPOS>ATOM
      1 C1         -56.0240    77.9180   -11.7020 cc         1 KGO      -0.279600
      2 N2         -57.0160    77.5510   -10.8480 na         1 KGO       0.147800
      3 N3         -57.0920    76.2430   -10.7120 nc         1 KGO      -0.493800
      4 C4         -56.1500    75.7210   -11.4770 cd         1 KGO       0.233900
      5 C5         -55.4250    76.7370   -12.1190 cd         1 KGO       0.016600
      6 C6         -55.6360    79.2790   -12.1250 c          1 KGO       0.645700
      7 C7         -57.8980    78.3880   -10.0620 c3         1 KGO       0.067900
      8 O8         -54.4830    79.4860   -12.4940 o          1 KGO      -0.614100
      9 N9         -56.5710    80.2360   -12.1140 ns         1 KGO      -0.499900
     10 C10        -56.2780    81.5900   -12.5270 c3         1 KGO       0.091300
     11 N11        -54.3400    76.6560   -12.9740 ns         1 KGO      -0.343100
     12 O12        -49.8070    78.6710   -12.9620 os         1 KGO      -0.451000
     13 C13        -49.2650    78.5570   -14.2550 c5         1 KGO       0.156600
     14 C14        -50.4830    78.5650   -15.1840 c5         1 KGO      -0.141000
     15 C15        -51.3290    79.6440   -14.5070 c5         1 KGO      -0.097400
     16 C16        -50.9350    79.5350   -13.0250 c5         1 KGO       0.152600
     17 N17        -51.1480    74.9850   -16.0610 nb         1 KGO      -0.722000
     18 C18        -50.6320    76.1950   -16.0330 ca         1 KGO       0.371900
     19 C19        -51.1350    77.2130   -15.2210 ca         1 KGO       0.263300
     20 N20        -52.1870    76.9490   -14.4700 nb         1 KGO      -0.603000
     21 C21        -52.7340    75.7460   -14.4760 ca         1 KGO       0.178500
     22 C22        -52.1970    74.7180   -15.2870 ca         1 KGO       0.621900
     23 N23        -52.7330    73.4700   -15.2910 nu         1 KGO      -0.915900
     24 C24        -53.9270    75.5450   -13.6050 c          1 KGO       0.533600
     25 O25        -54.4740    74.4520   -13.4870 o          1 KGO      -0.631100
     26 C26        -52.3860    72.3540   -16.0250 ca         1 KGO       0.209000
     27 C27        -53.1110    71.1800   -15.7890 ca         1 KGO       0.068400
     28 N28        -52.8810    70.0520   -16.4310 nb         1 KGO      -0.153500
     29 C29        -51.9120    70.0650   -17.3360 ca         1 KGO       0.083900
     30 N30        -51.1640    71.1090   -17.6410 nb         1 KGO      -0.153500
     31 C31        -51.3880    72.2490   -16.9980 ca         1 KGO       0.068400
     32 H32        -56.0200    74.6540   -11.5280 h4         1 KGO       0.067100
     33 H35        -58.2710    77.7900    -9.2370 h1         1 KGO       0.061367
     34 H33        -57.3570    79.2410    -9.6620 h1         1 KGO       0.061367
     35 H34        -58.7470    78.7370   -10.6500 h1         1 KGO       0.061367
     36 H36        -57.5380    79.9930   -11.9810 hn         1 KGO       0.318500
     37 H37        -57.1610    82.1970   -12.3520 h1         1 KGO       0.044367
     38 H39        -55.4550    82.0050   -11.9480 h1         1 KGO       0.044367
     39 H38        -56.0210    81.6480   -13.5860 h1         1 KGO       0.044367
     40 H40        -53.8270    77.5120   -13.1510 hn         1 KGO       0.380500
     41 H42        -48.6720    77.6410   -14.3100 h1         1 KGO       0.047200
     42 H43        -50.1910    78.8480   -16.1970 hc         1 KGO       0.068700
     43 H44        -51.0560    80.6190   -14.9120 hc         1 KGO       0.060200
     44 H45        -52.3990    79.5120   -14.6610 hc         1 KGO       0.060200
     45 H47        -51.7310    79.1040   -12.4170 h1         1 KGO       0.053700
     46 H46        -50.6890    80.5180   -12.6100 h1         1 KGO       0.053700
     47 H48        -49.7810    76.3760   -16.6820 h4         1 KGO       0.031100
     48 H49        -53.5160    73.3660   -14.6490 hn         1 KGO       0.548000
     49 H50        -53.9060    71.1740   -15.0470 h4         1 KGO       0.041600
     50 H51        -51.7200    69.1410   -17.8680 h5         1 KGO       0.052100
     51 H52        -50.7660    73.0910   -17.2600 h4         1 KGO       0.041600
     52 H41        -48.6070    79.4010   -14.5020 h1         1 KGO       0.047200
@<TRIPOS>BOND
     1     1     2 1   
     2     1     5 2   
     3     1     6 1   
     4     2     3 1   
     5     2     7 1   
     6     3     4 2   
     7     4     5 1   
     8     4    32 1   
     9     5    11 1   
    10     6     8 2   
    11     6     9 1   
    12     7    33 1   
    13     7    34 1   
    14     7    35 1   
    15     9    10 1   
    16     9    36 1   
    17    10    37 1   
    18    10    38 1   
    19    10    39 1   
    20    11    24 1   
    21    11    40 1   
    22    12    13 1   
    23    12    16 1   
    24    13    14 1   
    25    13    41 1   
    26    13    52 1   
    27    14    15 1   
    28    14    19 1   
    29    14    42 1   
    30    15    16 1   
    31    15    43 1   
    32    15    44 1   
    33    16    45 1   
    34    16    46 1   
    35    17    18 ar  
    36    17    22 ar  
    37    18    19 ar  
    38    18    47 1   
    39    19    20 ar  
    40    20    21 ar  
    41    21    22 ar  
    42    21    24 1   
    43    22    23 1   
    44    23    26 1   
    45    23    48 1   
    46    24    25 2   
    47    26    27 ar  
    48    26    31 ar  
    49    27    28 ar  
    50    27    49 1   
    51    28    29 ar  
    52    29    30 ar  
    53    29    50 1   
    54    30    31 ar  
    55    31    51 1   
@<TRIPOS>SUBSTRUCTURE
     1 KGO         1 TEMP              0 ****  ****    0 ROOT
