@<TRIPOS>MOLECULE
KGT
   32    31     1     0     0
SMALL
abcg2


@<TRIPOS>ATOM
      1 C01          3.4380    -0.1500     0.4410 c3         1 KGT      -0.181400
      2 C02          2.1550    -0.7540    -0.0980 c3         1 KGT      -0.144400
      3 C03          0.9270     0.0270     0.3180 c          1 KGT       0.602100
      4 O04          0.8740     0.6730     1.3540 o          1 KGT      -0.611100
      5 N05         -0.1110    -0.0770    -0.5340 ns         1 KGT      -0.502900
      6 C06         -1.3950     0.5340    -0.3220 c3         1 KGT       0.037700
      7 C07         -1.6160     1.7440    -1.2330 c3         1 KGT       0.064600
      8 S08         -0.3310     2.9940    -0.9060 sh         1 KGT      -0.416800
      9 C09         -2.4960    -0.4870    -0.6210 c          1 KGT       0.575100
     10 O10         -2.3700    -1.2940    -1.5340 o          1 KGT      -0.661100
     11 N11         -3.5770    -0.3830     0.1440 ns         1 KGT      -0.457900
     12 C12         -4.7750    -1.1660    -0.0270 c3         1 KGT      -0.058000
     13 C13         -5.8600    -0.7190     0.9760 c          1 KGT       0.713000
     14 O14         -5.5480     0.1790     1.7810 o          1 KGT      -0.730500
     15 O15         -6.9490    -1.3090     0.8780 o          1 KGT      -0.730500
     16 C16          4.6680    -0.9420     0.0850 c          1 KGT       0.429100
     17 C17          6.0410    -0.3510     0.5110 c          1 KGT       0.647000
     18 O18          7.0340    -0.8650    -0.0220 o          1 KGT      -0.703500
     19 O19          5.9900     0.5700     1.3440 o          1 KGT      -0.703500
     20 O20          4.6060    -2.0000    -0.4990 o          1 KGT      -0.577100
     21 H1           3.5740     0.8730     0.0780 hc         1 KGT       0.078200
     22 H2           3.4020    -0.0570     1.5290 hc         1 KGT       0.078200
     23 H3           2.1940    -0.8360    -1.1860 hc         1 KGT       0.056200
     24 H4           2.0300    -1.7750     0.2760 hc         1 KGT       0.056200
     25 H5          -0.0000    -0.6230    -1.3750 hn         1 KGT       0.326500
     26 H6          -1.4540     0.8560     0.7190 h1         1 KGT       0.101700
     27 H7          -1.5740     1.4380    -2.2790 h1         1 KGT       0.063700
     28 H8          -2.5980     2.1710    -1.0360 h1         1 KGT       0.063700
     29 H9          -0.7880     3.9110    -1.7660 hs         1 KGT       0.171800
     30 H10         -3.6230     0.2860     0.9010 hn         1 KGT       0.346500
     31 H11         -5.1610    -1.0640    -1.0460 h1         1 KGT       0.034700
     32 H12         -4.5690    -2.2300     0.1240 h1         1 KGT       0.034700
@<TRIPOS>BOND
     1     1     2 1   
     2     1    16 1   
     3     1    21 1   
     4     1    22 1   
     5     2     3 1   
     6     2    23 1   
     7     2    24 1   
     8     3     4 2   
     9     3     5 1   
    10     5     6 1   
    11     5    25 1   
    12     6     7 1   
    13     6     9 1   
    14     6    26 1   
    15     7     8 1   
    16     7    27 1   
    17     7    28 1   
    18     8    29 1   
    19     9    10 2   
    20     9    11 1   
    21    11    12 1   
    22    11    30 1   
    23    12    13 1   
    24    12    31 1   
    25    12    32 1   
    26    13    14 1   
    27    13    15 1   
    28    16    17 1   
    29    16    20 2   
    30    17    18 1   
    31    17    19 1   
@<TRIPOS>SUBSTRUCTURE
     1 KGT         1 TEMP              0 ****  ****    0 ROOT
