@<TRIPOS>MOLECULE
KGT
   32    31     1     0     0
SMALL
No Charge or Current Charge


@<TRIPOS>ATOM
      1 C01          3.4300     0.2160    -0.1840 c3         1 KGT      -0.181400
      2 C02          2.3570    -0.8110     0.2720 c3         1 KGT      -0.144400
      3 C03          1.0540    -0.1230     0.7030 c          1 KGT       0.602100
      4 O04          0.9440     0.4660     1.7690 o          1 KGT      -0.611100
      5 N05          0.0060    -0.2580    -0.1790 ns         1 KGT      -0.502900
      6 C06         -1.3380     0.3520    -0.0140 c3         1 KGT       0.037700
      7 C07         -1.4840     1.6340    -0.8740 c3         1 KGT       0.064600
      8 S08         -0.1710     2.9200    -0.6040 sh         1 KGT      -0.416800
      9 C09         -2.4540    -0.6700    -0.3690 c          1 KGT       0.575100
     10 O10         -2.2410    -1.7140    -0.9780 o          1 KGT      -0.661100
     11 N11         -3.7220    -0.3270     0.0520 ns         1 KGT      -0.457900
     12 C12         -4.9430    -1.1340    -0.1840 c3         1 KGT      -0.058000
     13 C13         -6.1920    -0.5460     0.5320 c          1 KGT       0.713000
     14 O14         -6.1820     0.6350     0.8540 o          1 KGT      -0.730500
     15 O15         -7.1210    -1.3020     0.7790 o          1 KGT      -0.730500
     16 C16          4.7330    -0.4830    -0.6210 c          1 KGT       0.429100
     17 C17          5.9280    -0.5880     0.4710 c          1 KGT       0.647000
     18 O18          6.6120    -1.6100     0.4950 o          1 KGT      -0.703500
     19 O19          6.1220     0.3620     1.2260 o          1 KGT      -0.703500
     20 O20          4.8360    -0.9440    -1.7630 o          1 KGT      -0.577100
     21 H1           3.0310     0.7960    -1.0250 hc         1 KGT       0.078200
     22 H2           3.6350     0.8770     0.6660 hc         1 KGT       0.078200
     23 H3           2.1590    -1.4950    -0.5620 hc         1 KGT       0.056200
     24 H4           2.7540    -1.3740     1.1250 hc         1 KGT       0.056200
     25 H5           0.1800    -0.8120    -1.0100 hn         1 KGT       0.326500
     26 H6          -1.4810     0.6230     1.0400 h1         1 KGT       0.101700
     27 H7          -1.4640     1.3540    -1.9350 h1         1 KGT       0.063700
     28 H8          -2.4590     2.0990    -0.6730 h1         1 KGT       0.063700
     29 H9          -0.6450     3.8100    -1.5080 hs         1 KGT       0.171800
     30 H10         -3.8270     0.5490     0.5540 hn         1 KGT       0.346500
     31 H11         -5.1470    -1.1730    -1.2610 h1         1 KGT       0.034700
     32 H12         -4.7750    -2.1550     0.1830 h1         1 KGT       0.034700
@<TRIPOS>BOND
     1     1     2 1   
     2     1    16 1   
     3     1    21 1   
     4     1    22 1   
     5     2     3 1   
     6     2    23 1   
     7     2    24 1   
     8     3     4 2   
     9     3     5 1   
    10     5     6 1   
    11     5    25 1   
    12     6     7 1   
    13     6     9 1   
    14     6    26 1   
    15     7     8 1   
    16     7    27 1   
    17     7    28 1   
    18     8    29 1   
    19     9    10 2   
    20     9    11 1   
    21    11    12 1   
    22    11    30 1   
    23    12    13 1   
    24    12    31 1   
    25    12    32 1   
    26    13    14 1   
    27    13    15 1   
    28    16    17 1   
    29    16    20 2   
    30    17    18 1   
    31    17    19 1   
@<TRIPOS>SUBSTRUCTURE
     1 KGT         1 TEMP              0 ****  ****    0 ROOT
