@<TRIPOS>MOLECULE
KGU
   69    72     1     0     0
SMALL
abcg2


@<TRIPOS>ATOM
      1 N           -4.3850     0.6230    -0.5320 n3         1 KGU      -0.698600
      2 CA          -3.0920     1.2480    -0.5320 c3         1 KGU       0.090800
      3 C           -1.9540     0.2390    -0.5540 c          1 KGU       0.602100
      4 O           -2.0610    -0.8730    -1.0350 o          1 KGU      -0.563100
      5 CAA          0.4710    -4.4250     0.8580 c3         1 KGU      -0.112100
      6 CAB          6.0900     0.1810    -0.6660 c3         1 KGU      -0.113100
      7 CAC         -8.3860    -0.3750     0.3160 c3         1 KGU       0.154100
      8 CAG          0.7210    -1.1820    -0.1240 ca         1 KGU      -0.145000
      9 CAH          2.8210     0.5620     0.2550 ca         1 KGU      -0.136000
     10 CAI          1.1750     5.3210     0.0020 c6         1 KGU      -0.076400
     11 CAJ          1.4300     4.6050     1.3240 c6         1 KGU      -0.077900
     12 CAK          0.3810     4.4270    -0.9420 c6         1 KGU      -0.077900
     13 CAL          1.1650    -3.9840    -0.4200 c3         1 KGU       0.089000
     14 CAM          5.4990    -0.4010     0.6070 c3         1 KGU       0.093000
     15 CAN          2.0810     3.2510     1.0880 c6         1 KGU       0.183300
     16 CAO          1.0530     3.0740    -1.1000 c6         1 KGU       0.183300
     17 CAP         -6.0390    -0.7030     0.6730 c6         1 KGU       0.164300
     18 CAQ         -6.7760     0.8720    -0.9450 c6         1 KGU       0.164300
     19 CAR         -4.6900    -0.0140     0.7360 c6         1 KGU       0.164800
     20 CAS         -5.4300     1.5670    -0.8850 c6         1 KGU       0.164800
     21 CAW          0.4700     0.1760    -0.0250 ca         1 KGU      -0.011000
     22 CAX          1.5400     1.0700     0.1430 ca         1 KGU       0.200000
     23 CAY          3.5020    -3.5770    -0.0080 c          1 KGU       0.485000
     24 CAZ          4.6590    -2.6220     0.2120 c          1 KGU       0.485000
     25 CBA          2.0190    -1.6830    -0.0380 ca         1 KGU       0.056600
     26 CBB          3.0830    -0.8050     0.1910 ca         1 KGU       0.021600
     27 NAU         -0.8070     0.7350    -0.0310 ns         1 KGU      -0.151000
     28 NBC         -7.0800     0.2410     0.3230 n3         1 KGU      -0.720600
     29 NBE          1.2440     2.4460     0.2100 nh         1 KGU      -0.791400
     30 NBF          2.2640    -3.0520    -0.1670 n          1 KGU      -0.289000
     31 NBG          4.3780    -1.3050     0.3450 n          1 KGU      -0.290000
     32 OAE          3.7380    -4.7680    -0.0490 o          1 KGU      -0.493000
     33 OAF          5.7810    -3.0820     0.2760 o          1 KGU      -0.496000
     34 H2          -2.9890     1.8470    -1.4450 h1         1 KGU       0.047700
     35 H3          -2.9560     1.9520     0.3070 h1         1 KGU       0.047700
     36 H4           1.1620    -4.9480     1.5170 hc         1 KGU       0.046700
     37 H5           0.0510    -3.5810     1.4060 hc         1 KGU       0.046700
     38 H6          -0.3450    -5.1040     0.6160 hc         1 KGU       0.046700
     39 H7           5.3570     0.7470    -1.2400 hc         1 KGU       0.046033
     40 H8           6.9100     0.8530    -0.4130 hc         1 KGU       0.046033
     41 H9           6.4870    -0.6070    -1.3060 hc         1 KGU       0.046033
     42 H10         -8.6050    -0.7980     1.2980 h1         1 KGU       0.031367
     43 H11         -9.1500     0.3720     0.0970 h1         1 KGU       0.031367
     44 H12         -8.4840    -1.1830    -0.4270 h1         1 KGU       0.031367
     45 H13         -0.1140    -1.8520    -0.2290 ha         1 KGU       0.157000
     46 H14          3.6330     1.2650     0.3720 ha         1 KGU       0.124000
     47 H15          0.6500     6.2630     0.1720 hc         1 KGU       0.043200
     48 H16          2.1330     5.5750    -0.4630 hc         1 KGU       0.043200
     49 H17          2.0780     5.2040     1.9670 hc         1 KGU       0.046950
     50 H18          0.4870     4.4610     1.8590 hc         1 KGU       0.046950
     51 H19         -0.6310     4.2810    -0.5520 hc         1 KGU       0.046950
     52 H20          0.2780     4.8940    -1.9240 hc         1 KGU       0.046950
     53 H21          1.5760    -4.8440    -0.9420 h1         1 KGU       0.069700
     54 H22          0.4680    -3.5130    -1.1100 h1         1 KGU       0.069700
     55 H23          6.2530    -0.9620     1.1500 h1         1 KGU       0.063200
     56 H24          5.1590     0.3820     1.2830 h1         1 KGU       0.063200
     57 H25          3.0850     3.4090     0.6640 h1         1 KGU       0.038700
     58 H26          2.2090     2.7200     2.0330 h1         1 KGU       0.038700
     59 H27          0.4440     2.4190    -1.7260 h1         1 KGU       0.038700
     60 H28          2.0210     3.1920    -1.6120 h1         1 KGU       0.038700
     61 H29         -5.9860    -1.5380    -0.0490 h1         1 KGU       0.041450
     62 H30         -6.2630    -1.1380     1.6500 h1         1 KGU       0.041450
     63 H31         -7.5480     1.6110    -1.1710 h1         1 KGU       0.041450
     64 H32         -6.7710     0.1420    -1.7740 h1         1 KGU       0.041450
     65 H33         -3.9270    -0.7610     0.9650 h1         1 KGU       0.039200
     66 H34         -4.6920     0.7170     1.5630 h1         1 KGU       0.039200
     67 H35         -5.4860     2.4020    -0.1650 h1         1 KGU       0.039200
     68 H36         -5.2050     1.9990    -1.8630 h1         1 KGU       0.039200
     69 H37         -0.8190     1.6800     0.3330 hn         1 KGU       0.175000
@<TRIPOS>BOND
     1     1     2 1   
     2     1    19 1   
     3     1    20 1   
     4     2     3 1   
     5     2    34 1   
     6     2    35 1   
     7     3     4 2   
     8     3    27 1   
     9     5    13 1   
    10     5    36 1   
    11     5    37 1   
    12     5    38 1   
    13     6    14 1   
    14     6    39 1   
    15     6    40 1   
    16     6    41 1   
    17     7    28 1   
    18     7    42 1   
    19     7    43 1   
    20     7    44 1   
    21     8    21 ar  
    22     8    25 ar  
    23     8    45 1   
    24     9    22 ar  
    25     9    26 ar  
    26     9    46 1   
    27    10    11 1   
    28    10    12 1   
    29    10    47 1   
    30    10    48 1   
    31    11    15 1   
    32    11    49 1   
    33    11    50 1   
    34    12    16 1   
    35    12    51 1   
    36    12    52 1   
    37    13    30 1   
    38    13    53 1   
    39    13    54 1   
    40    14    31 1   
    41    14    55 1   
    42    14    56 1   
    43    15    29 1   
    44    15    57 1   
    45    15    58 1   
    46    16    29 1   
    47    16    59 1   
    48    16    60 1   
    49    17    19 1   
    50    17    28 1   
    51    17    61 1   
    52    17    62 1   
    53    18    20 1   
    54    18    28 1   
    55    18    63 1   
    56    18    64 1   
    57    19    65 1   
    58    19    66 1   
    59    20    67 1   
    60    20    68 1   
    61    21    22 ar  
    62    21    27 1   
    63    22    29 1   
    64    23    24 1   
    65    23    30 1   
    66    23    32 2   
    67    24    31 1   
    68    24    33 2   
    69    25    26 ar  
    70    25    30 1   
    71    26    31 1   
    72    27    69 1   
@<TRIPOS>SUBSTRUCTURE
     1 KGU         1 TEMP              0 ****  ****    0 ROOT
