@<TRIPOS>MOLECULE
KGU
   69    72     1     0     0
SMALL
No Charge or Current Charge


@<TRIPOS>ATOM
      1 N           -4.4830     0.6150    -0.6650 n3         1 KGU      -0.698600
      2 CA          -3.0780     1.1190    -0.8120 c3         1 KGU       0.090800
      3 C           -1.9050     0.0910    -0.8000 c          1 KGU       0.602100
      4 O           -2.0450    -1.0880    -1.1170 o          1 KGU      -0.563100
      5 CAA          0.4670    -4.6150     0.6140 c3         1 KGU      -0.112100
      6 CAB          6.2330     0.2110    -0.6940 c3         1 KGU      -0.113100
      7 CAC         -8.6000    -0.0440     0.6710 c3         1 KGU       0.154100
      8 CAG          0.8940    -1.2660    -0.2600 ca         1 KGU      -0.145000
      9 CAH          2.9540     0.5470     0.2280 ca         1 KGU      -0.136000
     10 CAI          0.8390     5.3030     0.0910 c6         1 KGU      -0.076400
     11 CAJ          0.9760     4.4760     1.3920 c6         1 KGU      -0.077900
     12 CAK          0.3610     4.3990    -1.0710 c6         1 KGU      -0.077900
     13 CAL          1.4230    -4.1550    -0.5050 c3         1 KGU       0.089000
     14 CAM          5.7280    -0.3380     0.6540 c3         1 KGU       0.093000
     15 CAN          1.8860     3.2410     1.1790 c6         1 KGU       0.183300
     16 CAO          1.2840     3.1660    -1.2360 c6         1 KGU       0.183300
     17 CAP         -6.1930    -0.6210     0.7520 c6         1 KGU       0.164300
     18 CAQ         -6.9660     1.1460    -0.7600 c6         1 KGU       0.164300
     19 CAR         -4.7320    -0.0800     0.6370 c6         1 KGU       0.164800
     20 CAS         -5.5050     1.6870    -0.8740 c6         1 KGU       0.164800
     21 CAW          0.6130     0.1140    -0.2430 ca         1 KGU      -0.011000
     22 CAX          1.6560     1.0240     0.0040 ca         1 KGU       0.200000
     23 CAY          3.7140    -3.7120     0.3450 c          1 KGU       0.485000
     24 CAZ          4.8880    -2.6850     0.6260 c          1 KGU       0.485000
     25 CBA          2.2130    -1.7590    -0.0950 ca         1 KGU       0.056600
     26 CBB          3.2630    -0.8340     0.1740 ca         1 KGU       0.021600
     27 NAU         -0.6960     0.6480    -0.4120 ns         1 KGU      -0.151000
     28 NBC         -7.2140     0.4510     0.5410 n3         1 KGU      -0.720600
     29 NBE          1.3930     2.4150     0.0440 nh         1 KGU      -0.791400
     30 NBF          2.4560    -3.1880    -0.0310 n          1 KGU      -0.289000
     31 NBG          4.5990    -1.3040     0.5050 n          1 KGU      -0.290000
     32 OAE          3.9080    -4.9240     0.4400 o          1 KGU      -0.493000
     33 OAF          6.0120    -3.0930     0.9190 o          1 KGU      -0.496000
     34 H2          -2.9800     1.6680    -1.7580 h1         1 KGU       0.047700
     35 H3          -2.8720     1.8460    -0.0140 h1         1 KGU       0.047700
     36 H4           1.0220    -5.1380     1.4020 hc         1 KGU       0.046700
     37 H5          -0.0530    -3.7650     1.0690 hc         1 KGU       0.046700
     38 H6          -0.2860    -5.3030     0.2110 hc         1 KGU       0.046700
     39 H7           5.4360     0.7350    -1.2330 hc         1 KGU       0.046033
     40 H8           7.0580     0.9140    -0.5330 hc         1 KGU       0.046033
     41 H9           6.5970    -0.6070    -1.3280 hc         1 KGU       0.046033
     42 H10         -8.7580    -0.5010     1.6580 h1         1 KGU       0.031367
     43 H11         -9.3180     0.7800     0.5620 h1         1 KGU       0.031367
     44 H12         -8.8220    -0.7980    -0.0960 h1         1 KGU       0.031367
     45 H13          0.0740    -1.9560    -0.3930 ha         1 KGU       0.157000
     46 H14          3.7180     1.2870     0.4320 ha         1 KGU       0.124000
     47 H15          0.1330     6.1310     0.2420 hc         1 KGU       0.043200
     48 H16          1.8070     5.7550    -0.1650 hc         1 KGU       0.043200
     49 H17          1.3840     5.1030     2.1960 hc         1 KGU       0.046950
     50 H18         -0.0170     4.1440     1.7260 hc         1 KGU       0.046950
     51 H19         -0.6670     4.0630    -0.8800 hc         1 KGU       0.046950
     52 H20          0.3350     4.9720    -2.0070 hc         1 KGU       0.046950
     53 H21          1.9090    -5.0390    -0.9380 h1         1 KGU       0.069700
     54 H22          0.8480    -3.7100    -1.3260 h1         1 KGU       0.069700
     55 H23          6.5740    -0.8090     1.1690 h1         1 KGU       0.063200
     56 H24          5.4250     0.4890     1.3070 h1         1 KGU       0.063200
     57 H25          2.9150     3.5760     0.9840 h1         1 KGU       0.038700
     58 H26          1.9010     2.6460     2.1050 h1         1 KGU       0.038700
     59 H27          0.8780     2.5200    -2.0280 h1         1 KGU       0.038700
     60 H28          2.2810     3.4970    -1.5620 h1         1 KGU       0.038700
     61 H29         -6.3270    -1.4220     0.0090 h1         1 KGU       0.041450
     62 H30         -6.3210    -1.0790     1.7430 h1         1 KGU       0.041450
     63 H31         -7.6630     1.9880    -0.8800 h1         1 KGU       0.041450
     64 H32         -7.1490     0.4560    -1.5970 h1         1 KGU       0.041450
     65 H33         -4.0400    -0.9260     0.7620 h1         1 KGU       0.039200
     66 H34         -4.5490     0.6100     1.4740 h1         1 KGU       0.039200
     67 H35         -5.3700     2.4870    -0.1320 h1         1 KGU       0.039200
     68 H36         -5.3790     2.1450    -1.8660 h1         1 KGU       0.039200
     69 H37         -0.7370     1.6400    -0.2130 hn         1 KGU       0.175000
@<TRIPOS>BOND
     1     1     2 1   
     2     1    19 1   
     3     1    20 1   
     4     2     3 1   
     5     2    34 1   
     6     2    35 1   
     7     3     4 2   
     8     3    27 1   
     9     5    13 1   
    10     5    36 1   
    11     5    37 1   
    12     5    38 1   
    13     6    14 1   
    14     6    39 1   
    15     6    40 1   
    16     6    41 1   
    17     7    28 1   
    18     7    42 1   
    19     7    43 1   
    20     7    44 1   
    21     8    21 ar  
    22     8    25 ar  
    23     8    45 1   
    24     9    22 ar  
    25     9    26 ar  
    26     9    46 1   
    27    10    11 1   
    28    10    12 1   
    29    10    47 1   
    30    10    48 1   
    31    11    15 1   
    32    11    49 1   
    33    11    50 1   
    34    12    16 1   
    35    12    51 1   
    36    12    52 1   
    37    13    30 1   
    38    13    53 1   
    39    13    54 1   
    40    14    31 1   
    41    14    55 1   
    42    14    56 1   
    43    15    29 1   
    44    15    57 1   
    45    15    58 1   
    46    16    29 1   
    47    16    59 1   
    48    16    60 1   
    49    17    19 1   
    50    17    28 1   
    51    17    61 1   
    52    17    62 1   
    53    18    20 1   
    54    18    28 1   
    55    18    63 1   
    56    18    64 1   
    57    19    65 1   
    58    19    66 1   
    59    20    67 1   
    60    20    68 1   
    61    21    22 ar  
    62    21    27 1   
    63    22    29 1   
    64    23    24 1   
    65    23    30 1   
    66    23    32 2   
    67    24    31 1   
    68    24    33 2   
    69    25    26 ar  
    70    25    30 1   
    71    26    31 1   
    72    27    69 1   
@<TRIPOS>SUBSTRUCTURE
     1 KGU         1 TEMP              0 ****  ****    0 ROOT
