@<TRIPOS>MOLECULE
KGW
   57    60     1     0     0
SMALL
bcc


@<TRIPOS>ATOM
      1 CBC         -6.6660    -1.2740    -1.0680 c6         1 KGW       0.158800
      2 CBE         -8.1240    -1.5410    -0.7430 c6         1 KGW       0.124400
      3 OBG         -8.9200    -0.3890    -0.9060 os         1 KGW      -0.398600
      4 CBF         -8.4560     0.6480    -0.0730 c6         1 KGW       0.124400
      5 CBD         -7.0120     0.9990    -0.3710 c6         1 KGW       0.158800
      6 NBB         -6.1690    -0.1850    -0.2490 nh         1 KGW      -0.647000
      7 CBA         -4.7900     0.0110    -0.1980 ca         1 KGW       0.183600
      8 CAY         -4.2610     0.9570     0.6940 ca         1 KGW      -0.247000
      9 CAS         -2.8930     1.1530     0.8020 ca         1 KGW       0.149100
     10 OAT         -2.3220     2.0320     1.6460 os         1 KGW      -0.320900
     11 CAU         -3.1490     2.8540     2.4450 c3         1 KGW       0.126700
     12 CAX         -3.9000    -0.7230    -0.9850 ca         1 KGW      -0.213000
     13 CAR         -2.5330    -0.5120    -0.8800 ca         1 KGW      -0.055000
     14 CAL         -2.0070     0.4100     0.0060 ca         1 KGW       0.090600
     15 NAH         -0.6270     0.6600     0.1110 nu         1 KGW      -0.721300
     16 C2           0.3470    -0.2530     0.2700 ca         1 KGW       0.956900
     17 N3           1.5890     0.2200     0.3410 nb         1 KGW      -0.865000
     18 N1           0.0200    -1.5520     0.3460 nb         1 KGW      -0.819000
     19 C6           1.0540    -2.3550     0.4790 ca         1 KGW       0.725900
     20 C4           2.5420    -0.6960     0.4780 ca         1 KGW       0.962900
     21 NAE          3.7990    -0.1990     0.5350 nu         1 KGW      -0.742300
     22 CAJ          5.0270    -0.8410     0.6440 ca         1 KGW       0.233600
     23 CAQ          5.1730    -2.1050     1.2210 ca         1 KGW      -0.157000
     24 CAW          6.4260    -2.6810     1.3480 ca         1 KGW      -0.083000
     25 CAZ          7.5630    -2.0160     0.9150 ca         1 KGW      -0.166000
     26 CAV          7.4270    -0.7660     0.3380 ca         1 KGW      -0.085000
     27 CAP          6.1780    -0.1690     0.1790 ca         1 KGW      -0.208600
     28 CAO          6.0840     1.1860    -0.4440 c          1 KGW       0.682700
     29 OAI          5.2340     2.0090    -0.0960 o          1 KGW      -0.628100
     30 NAN          6.9750     1.4630    -1.4000 ns         1 KGW      -0.561900
     31 NAQ          2.3290    -2.0140     0.5440 nb         1 KGW      -0.836000
     32 CAM          7.0230     2.7480    -2.0590 c3         1 KGW       0.094300
     33 HBC1        -6.1030    -2.1830    -0.8520 h1         1 KGW       0.048200
     34 HBC2        -6.5560    -1.0630    -2.1430 h1         1 KGW       0.048200
     35 HBE1        -8.5140    -2.3100    -1.4110 h1         1 KGW       0.053200
     36 HBE2        -8.2010    -1.9160     0.2880 h1         1 KGW       0.053200
     37 HBF1        -9.0880     1.5190    -0.2470 h1         1 KGW       0.053200
     38 HBF2        -8.5520     0.3640     0.9850 h1         1 KGW       0.053200
     39 HBD1        -6.9350     1.4260    -1.3820 h1         1 KGW       0.048200
     40 HBD2        -6.7010     1.7710     0.3300 h1         1 KGW       0.048200
     41 HAY         -4.9350     1.5070     1.3350 ha         1 KGW       0.139000
     42 HAX         -4.2550    -1.4440    -1.7070 ha         1 KGW       0.136000
     43 HAU1        -3.7550     2.2700     3.1430 h1         1 KGW       0.042033
     44 HAU2        -2.4840     3.4970     3.0150 h1         1 KGW       0.042033
     45 HAU3        -3.8110     3.4780     1.8400 h1         1 KGW       0.042033
     46 HAR         -1.8650    -1.0730    -1.5190 ha         1 KGW       0.149000
     47 HAH         -0.3220     1.6210     0.1370 hn         1 KGW       0.467800
     48 H6           0.8370    -3.4170     0.5410 h5         1 KGW       0.045100
     49 HAE          3.8670     0.8050     0.3970 hn         1 KGW       0.496800
     50 HAQ          4.3050    -2.6350     1.5760 ha         1 KGW       0.170000
     51 HAW          6.5100    -3.6570     1.8100 ha         1 KGW       0.134000
     52 HAZ          8.5430    -2.4580     1.0350 ha         1 KGW       0.136000
     53 HAV          8.3190    -0.2370     0.0250 ha         1 KGW       0.127000
     54 HAN          7.5880     0.7380    -1.7330 hn         1 KGW       0.320500
     55 HAM1         7.8660     2.7470    -2.7440 h1         1 KGW       0.042367
     56 HAM2         6.1140     2.9440    -2.6290 h1         1 KGW       0.042367
     57 HAM3         7.1610     3.5560    -1.3420 h1         1 KGW       0.042367
@<TRIPOS>BOND
     1     1     2 1   
     2     1     6 1   
     3     1    33 1   
     4     1    34 1   
     5     2     3 1   
     6     2    35 1   
     7     2    36 1   
     8     3     4 1   
     9     4     5 1   
    10     4    37 1   
    11     4    38 1   
    12     5     6 1   
    13     5    39 1   
    14     5    40 1   
    15     6     7 1   
    16     7     8 ar  
    17     7    12 ar  
    18     8     9 ar  
    19     8    41 1   
    20     9    10 1   
    21     9    14 ar  
    22    10    11 1   
    23    11    43 1   
    24    11    44 1   
    25    11    45 1   
    26    12    13 ar  
    27    12    42 1   
    28    13    14 ar  
    29    13    46 1   
    30    14    15 1   
    31    15    16 1   
    32    15    47 1   
    33    16    17 ar  
    34    16    18 ar  
    35    17    20 ar  
    36    18    19 ar  
    37    19    31 ar  
    38    19    48 1   
    39    20    21 1   
    40    20    31 ar  
    41    21    22 1   
    42    21    49 1   
    43    22    23 ar  
    44    22    27 ar  
    45    23    24 ar  
    46    23    50 1   
    47    24    25 ar  
    48    24    51 1   
    49    25    26 ar  
    50    25    52 1   
    51    26    27 ar  
    52    26    53 1   
    53    27    28 1   
    54    28    29 2   
    55    28    30 1   
    56    30    32 1   
    57    30    54 1   
    58    32    55 1   
    59    32    56 1   
    60    32    57 1   
@<TRIPOS>SUBSTRUCTURE
     1 KGW         1 TEMP              0 ****  ****    0 ROOT
