@<TRIPOS>MOLECULE
KGW
   57    60     1     0     0
SMALL
No Charge or Current Charge


@<TRIPOS>ATOM
      1 CBC         -7.0420    -1.3740    -0.4730 c6         1 KGW       0.158800
      2 CBE         -8.5470    -1.2440    -0.0880 c6         1 KGW       0.147600
      3 OBG         -9.1620    -0.1360    -0.7860 os         1 KGW      -0.445000
      4 CBF         -8.5270     1.1290    -0.4830 c6         1 KGW       0.147600
      5 CBD         -7.0210     1.1040    -0.8840 c6         1 KGW       0.158800
      6 NBB         -6.3010    -0.0810    -0.3090 nh         1 KGW      -0.785400
      7 CBA         -4.8950    -0.0560    -0.1700 ca         1 KGW       0.322000
      8 CAY         -4.2860     0.9840     0.5490 ca         1 KGW      -0.229000
      9 CAS         -2.8820     1.0290     0.7010 ca         1 KGW       0.149100
     10 OAT         -2.2610     2.0550     1.4030 os         1 KGW      -0.344100
     11 CAU         -2.9960     3.1310     2.0140 c3         1 KGW       0.149900
     12 CAX         -4.0890    -1.0540    -0.7440 ca         1 KGW      -0.195000
     13 CAR         -2.6910    -1.0200    -0.5990 ca         1 KGW      -0.037000
     14 CAL         -2.0680     0.0120     0.1350 ca         1 KGW       0.229000
     15 NAH         -0.6670     0.0900     0.2980 nu         1 KGW      -0.914900
     16 C2           0.3940    -0.7960     0.2160 ca         1 KGW       0.430900
     17 N3           1.6020    -0.2390     0.3800 nb         1 KGW      -0.339000
     18 N1           0.1580    -2.1030     0.0080 nb         1 KGW      -0.293000
     19 C6           1.2630    -2.8720    -0.0430 ca         1 KGW       0.199900
     20 C4           2.6270    -1.0990     0.3170 ca         1 KGW       0.436900
     21 NAE          3.8720    -0.5230     0.4660 nu         1 KGW      -0.935900
     22 CAJ          5.1910    -0.9780     0.5270 ca         1 KGW       0.372000
     23 CAQ          5.4780    -2.2770     0.9960 ca         1 KGW      -0.139000
     24 CAW          6.7960    -2.7510     1.0550 ca         1 KGW      -0.065000
     25 CAZ          7.8480    -1.9210     0.6550 ca         1 KGW      -0.148000
     26 CAV          7.5860    -0.6180     0.2080 ca         1 KGW      -0.067000
     27 CAP          6.2570    -0.1200     0.1420 ca         1 KGW      -0.208600
     28 CAO          5.9990     1.3010    -0.3240 c          1 KGW       0.615700
     29 OAI          4.9350     1.8820    -0.1500 o          1 KGW      -0.628100
     30 NAN          7.0490     1.9450    -0.9410 ns         1 KGW      -0.494900
     31 NAQ          2.5250    -2.4220     0.1030 nb         1 KGW      -0.310000
     32 CAM          6.9980     3.3220    -1.4380 c3         1 KGW       0.094300
     33 HBC1        -6.5910    -2.1540     0.1590 h1         1 KGW       0.048200
     34 HBC2        -6.9740    -1.7160    -1.5160 h1         1 KGW       0.048200
     35 HBE1        -9.0780    -2.1710    -0.3440 h1         1 KGW       0.053200
     36 HBE2        -8.6420    -1.0860     0.9960 h1         1 KGW       0.053200
     37 HBF1        -9.0440     1.9320    -1.0280 h1         1 KGW       0.053200
     38 HBF2        -8.6230     1.3330     0.5930 h1         1 KGW       0.053200
     39 HBD1        -6.9490     1.0830    -1.9820 h1         1 KGW       0.048200
     40 HBD2        -6.5610     2.0440    -0.5500 h1         1 KGW       0.048200
     41 HAY         -4.9190     1.7420     0.9940 ha         1 KGW       0.121000
     42 HAX         -4.5370    -1.8560    -1.3220 ha         1 KGW       0.118000
     43 HAU1        -3.6940     2.7470     2.7690 h1         1 KGW       0.042033
     44 HAU2        -2.3090     3.8270     2.5100 h1         1 KGW       0.042033
     45 HAU3        -3.5640     3.6930     1.2610 h1         1 KGW       0.042033
     46 HAR         -2.1020    -1.7920    -1.0800 ha         1 KGW       0.131000
     47 HAH         -0.3720     0.9930     0.6700 hn         1 KGW       0.523000
     48 H6           1.1260    -3.9390    -0.2140 h5         1 KGW       0.045100
     49 HAE          3.8380     0.4950     0.3390 hn         1 KGW       0.552000
     50 HAQ          4.6800    -2.9270     1.3350 ha         1 KGW       0.152000
     51 HAW          6.9990    -3.7570     1.4170 ha         1 KGW       0.116000
     52 HAZ          8.8730    -2.2830     0.7050 ha         1 KGW       0.118000
     53 HAV          8.4370     0.0010    -0.0650 ha         1 KGW       0.109000
     54 HAN          7.8990     1.4140    -1.0740 hn         1 KGW       0.320500
     55 HAM1         7.9640     3.5870    -1.8870 h1         1 KGW       0.042367
     56 HAM2         6.2100     3.4120    -2.1980 h1         1 KGW       0.042367
     57 HAM3         6.7840     4.0080    -0.6080 h1         1 KGW       0.042367
@<TRIPOS>BOND
     1     1     2 1   
     2     1     6 1   
     3     1    33 1   
     4     1    34 1   
     5     2     3 1   
     6     2    35 1   
     7     2    36 1   
     8     3     4 1   
     9     4     5 1   
    10     4    37 1   
    11     4    38 1   
    12     5     6 1   
    13     5    39 1   
    14     5    40 1   
    15     6     7 1   
    16     7     8 ar  
    17     7    12 ar  
    18     8     9 ar  
    19     8    41 1   
    20     9    10 1   
    21     9    14 ar  
    22    10    11 1   
    23    11    43 1   
    24    11    44 1   
    25    11    45 1   
    26    12    13 ar  
    27    12    42 1   
    28    13    14 ar  
    29    13    46 1   
    30    14    15 1   
    31    15    16 1   
    32    15    47 1   
    33    16    17 ar  
    34    16    18 ar  
    35    17    20 ar  
    36    18    19 ar  
    37    19    31 ar  
    38    19    48 1   
    39    20    21 1   
    40    20    31 ar  
    41    21    22 1   
    42    21    49 1   
    43    22    23 ar  
    44    22    27 ar  
    45    23    24 ar  
    46    23    50 1   
    47    24    25 ar  
    48    24    51 1   
    49    25    26 ar  
    50    25    52 1   
    51    26    27 ar  
    52    26    53 1   
    53    27    28 1   
    54    28    29 2   
    55    28    30 1   
    56    30    32 1   
    57    30    54 1   
    58    32    55 1   
    59    32    56 1   
    60    32    57 1   
@<TRIPOS>SUBSTRUCTURE
     1 KGW         1 TEMP              0 ****  ****    0 ROOT
