@<TRIPOS>MOLECULE
KGX
   86    91     1     0     0
SMALL
No Charge or Current Charge


@<TRIPOS>ATOM
      1 N1          15.5700     6.1740    10.8980 ns         1 KGX      -0.525900
      2 C7          18.3280     7.4820    15.9510 c5         1 KGX       0.107300
      3 C8          18.7680    10.3420    12.4860 cc         1 KGX       0.509700
      4 N2          15.8730     7.0540    12.9520 ns         1 KGX      -0.519900
      5 C9          17.3720    10.4030    12.7440 cg         1 KGX      -0.195200
      6 O1          18.6260     7.3650    13.5630 os         1 KGX      -0.431000
      7 C1          15.4790     5.1560     9.8490 c3         1 KGX       0.119000
      8 O5          14.0730    11.2190     8.0040 oh         1 KGX      -0.685000
      9 C5          19.4350     8.4380    14.0830 c5         1 KGX       0.321300
     10 C6          18.7490     8.8820    15.4190 c5         1 KGX       0.074300
     11 N3          19.6810     9.4300    13.0330 na         1 KGX      -0.266300
     12 C4          17.7940     6.8290    14.6310 c5         1 KGX       0.146300
     13 O4          16.0480     8.9090     9.9920 os         1 KGX      -0.444000
     14 C3          16.2950     7.1500    14.3520 c3         1 KGX       0.122000
     15 O3          19.6280     9.5520    16.3480 oh         1 KGX      -0.697000
     16 C2          15.9330     5.9320    12.1890 c          1 KGX       0.662100
     17 N4          14.0860     9.2550    12.2430 n3         1 KGX      -0.739600
     18 N           14.1330     3.2110     8.9460 n8         1 KGX      -1.000200
     19 C           14.2760     4.1960    10.0460 c3         1 KGX       0.123800
     20 O           16.2580     4.8360    12.6140 o          1 KGX      -0.682100
     21 C10         16.1670    10.4210    12.9030 c1         1 KGX      -0.040100
     22 C11         14.7030    10.3680    13.0290 c3         1 KGX       0.244900
     23 C12         13.8200     9.5760    10.8020 c3         1 KGX       0.187800
     24 C13         15.0530     9.9460     9.9340 c5         1 KGX       0.116300
     25 C14         17.0230     9.1920     8.9650 c5         1 KGX       0.268300
     26 C15         16.2940    10.1230     7.9140 c5         1 KGX       0.131300
     27 C16         14.8110    10.0500     8.4040 c5         1 KGX       0.147300
     28 C17         17.2290     7.2190     7.3470 cc         1 KGX       0.416700
     29 C18         18.7310     6.0730     8.3790 ca         1 KGX      -0.099600
     30 C19         18.5300     7.1860     9.1560 ca         1 KGX       0.130500
     31 C20         20.0770     6.4230    10.6560 ca         1 KGX       0.177900
     32 C21         19.6720     5.1190     8.8190 ca         1 KGX       0.440900
     33 C22         12.8680     8.6890    12.9200 c3         1 KGX       0.020800
     34 C23         11.6090     9.6100    13.1000 c          1 KGX       0.694000
     35 C24         20.6630    10.6960    11.5460 ca         1 KGX      -0.088600
     36 C25         20.8810     9.6610    12.4210 ca         1 KGX       0.134500
     37 C26         23.0680     9.5640    11.7550 ca         1 KGX       0.168900
     38 C27         21.7450    11.1450    10.7620 ca         1 KGX       0.437900
     39 N10         19.3390    11.1400    11.5690 nd         1 KGX      -0.545100
     40 N11         22.0870     9.0710    12.5480 nb         1 KGX      -0.208000
     41 N12         22.9570    10.5770    10.8620 nb         1 KGX      -0.307000
     42 N13         21.6320    12.1580     9.8620 nv         1 KGX      -1.058900
     43 N5          17.5780     7.9190     8.5080 na         1 KGX      -0.289300
     44 N6          17.9260     6.0720     7.2350 nd         1 KGX      -0.566100
     45 N7          19.1970     7.3910    10.3060 nb         1 KGX      -0.209000
     46 N8          20.3500     5.2890     9.9660 nb         1 KGX      -0.299000
     47 N9          19.9440     3.9820     8.1240 nv         1 KGX      -1.062900
     48 O2          19.4620     6.8010    16.5040 oh         1 KGX      -0.702000
     49 O6          16.7380    11.4850     7.9780 oh         1 KGX      -0.678000
     50 O7          10.7300     9.5690    12.2480 o          1 KGX      -0.728000
     51 O8          11.5530    10.3370    14.0830 o          1 KGX      -0.728000
     52 H1          15.4270     7.1460    10.6450 hn         1 KGX       0.326500
     53 H2          17.5340     7.5660    16.7070 h1         1 KGX       0.052700
     54 H3          15.4830     7.8870    12.5120 hn         1 KGX       0.363500
     55 H4          16.4140     4.5810     9.8300 h1         1 KGX       0.052700
     56 H5          15.3760     5.6700     8.8850 h1         1 KGX       0.052700
     57 H6          13.1250    10.9570     7.9220 ho         1 KGX       0.514000
     58 H7          20.4220     8.0270    14.3320 h2         1 KGX       0.107700
     59 H8          17.8590     9.4960    15.2280 h1         1 KGX       0.064700
     60 H9          17.9080     5.7370    14.6500 h1         1 KGX       0.105700
     61 H10         16.0740     8.1680    14.6950 h1         1 KGX       0.049200
     62 H11         15.6740     6.4700    14.9500 h1         1 KGX       0.049200
     63 H12         19.7270    10.4870    16.0480 ho         1 KGX       0.507000
     64 H14         13.2950     2.6400     9.1120 hn         1 KGX       0.388000
     65 H15         13.9170     3.7070     8.0730 hn         1 KGX       0.388000
     66 H17         13.3500     4.7850    10.1100 h1         1 KGX       0.038200
     67 H18         14.3970     3.6470    10.9910 h1         1 KGX       0.038200
     68 H19         14.2800    11.3390    12.7370 h1         1 KGX       0.075700
     69 H20         14.4890    10.2420    14.0990 h1         1 KGX       0.075700
     70 H21         13.1030    10.4050    10.7330 h1         1 KGX       0.055200
     71 H22         13.3410     8.7090    10.3250 h1         1 KGX       0.055200
     72 H23         15.4850    10.8800    10.3160 h1         1 KGX       0.089700
     73 H24         17.8640     9.7440     9.4040 h2         1 KGX       0.110700
     74 H25         16.3890     9.7490     6.8860 h1         1 KGX       0.055700
     75 H26         14.3270     9.1380     8.0250 h1         1 KGX       0.033700
     76 H27         16.4770     7.5730     6.6520 h5         1 KGX       0.073800
     77 H28         20.6210     6.5730    11.5870 h5         1 KGX       0.045100
     78 H29         12.5330     7.7980    12.3730 h1         1 KGX       0.041700
     79 H30         13.1440     8.3360    13.9220 h1         1 KGX       0.041700
     80 H31         24.0480     9.0970    11.8450 h5         1 KGX       0.039100
     81 H32         22.3450    12.2410     9.1430 hn         1 KGX       0.497500
     82 H33         20.6910    12.4540     9.6140 hn         1 KGX       0.497500
     83 H34         20.3950     3.2170     8.6170 hn         1 KGX       0.498000
     84 H35         19.3000     3.7330     7.3770 hn         1 KGX       0.498000
     85 H36         19.9970     7.5260    16.9100 ho         1 KGX       0.510000
     86 H37         15.8940    11.9980     7.9110 ho         1 KGX       0.504000
@<TRIPOS>BOND
     1     1     7 1   
     2     1    16 1   
     3     1    52 1   
     4     2    10 1   
     5     2    12 1   
     6     2    48 1   
     7     2    53 1   
     8     3     5 1   
     9     3    11 1   
    10     3    39 2   
    11     4    14 1   
    12     4    16 1   
    13     4    54 1   
    14     5    21 3   
    15     6     9 1   
    16     6    12 1   
    17     7    19 1   
    18     7    55 1   
    19     7    56 1   
    20     8    27 1   
    21     8    57 1   
    22     9    10 1   
    23     9    11 1   
    24     9    58 1   
    25    10    15 1   
    26    10    59 1   
    27    11    36 1   
    28    12    14 1   
    29    12    60 1   
    30    13    24 1   
    31    13    25 1   
    32    14    61 1   
    33    14    62 1   
    34    15    63 1   
    35    16    20 2   
    36    17    22 1   
    37    17    23 1   
    38    17    33 1   
    39    18    19 1   
    40    18    64 1   
    41    18    65 1   
    42    19    66 1   
    43    19    67 1   
    44    21    22 1   
    45    22    68 1   
    46    22    69 1   
    47    23    24 1   
    48    23    70 1   
    49    23    71 1   
    50    24    27 1   
    51    24    72 1   
    52    25    26 1   
    53    25    43 1   
    54    25    73 1   
    55    26    27 1   
    56    26    49 1   
    57    26    74 1   
    58    27    75 1   
    59    28    43 1   
    60    28    44 2   
    61    28    76 1   
    62    29    30 ar  
    63    29    32 ar  
    64    29    44 1   
    65    30    43 1   
    66    30    45 ar  
    67    31    45 ar  
    68    31    46 ar  
    69    31    77 1   
    70    32    46 ar  
    71    32    47 1   
    72    33    34 1   
    73    33    78 1   
    74    33    79 1   
    75    34    50 1   
    76    34    51 1   
    77    35    36 ar  
    78    35    38 ar  
    79    35    39 1   
    80    36    40 ar  
    81    37    40 ar  
    82    37    41 ar  
    83    37    80 1   
    84    38    41 ar  
    85    38    42 1   
    86    42    81 1   
    87    42    82 1   
    88    47    83 1   
    89    47    84 1   
    90    48    85 1   
    91    49    86 1   
@<TRIPOS>SUBSTRUCTURE
     1 KGX         1 TEMP              0 ****  ****    0 ROOT
