@<TRIPOS>MOLECULE
KGX
   86    91     1     0     0
SMALL
abcg2


@<TRIPOS>ATOM
      1 N1          15.8060     5.6310    11.4170 ns         1 KGX      -0.525900
      2 C7          18.5860     7.9810    16.0330 c5         1 KGX       0.107300
      3 C8          18.7200    11.1960    12.9480 cc         1 KGX       0.509700
      4 N2          16.3170     7.0650    13.1110 ns         1 KGX      -0.519900
      5 C9          17.3500    10.8500    12.9600 cg         1 KGX      -0.195200
      6 O1          18.8450     8.2910    13.6950 os         1 KGX      -0.431000
      7 C1          15.5840     4.3690    10.7720 c3         1 KGX       0.119000
      8 O5          15.6710    11.4120     8.0660 oh         1 KGX      -0.685000
      9 C5          19.5980     9.2590    14.3600 c5         1 KGX       0.321300
     10 C6          18.9110     9.4420    15.7010 c5         1 KGX       0.074300
     11 N3          19.7050    10.4570    13.5660 na         1 KGX      -0.266300
     12 C4          18.2120     7.4350    14.6600 c5         1 KGX       0.146300
     13 O4          16.3770     8.3850     9.8280 os         1 KGX      -0.444000
     14 C3          16.7070     7.4100    14.4490 c3         1 KGX       0.122000
     15 O3          19.7660    10.0880    16.5910 oh         1 KGX      -0.697000
     16 C2          16.2360     5.7730    12.6970 c          1 KGX       0.662100
     17 N4          14.4770     9.2250    11.8770 n3         1 KGX      -0.739600
     18 N           13.9900     3.0030     9.5320 n8         1 KGX      -1.000200
     19 C           14.1330     4.2040    10.3330 c3         1 KGX       0.123800
     20 O           16.5190     4.8220    13.4240 o          1 KGX      -0.682100
     21 C10         16.1740    10.6050    12.9000 c1         1 KGX      -0.040100
     22 C11         14.7480    10.3050    12.8090 c3         1 KGX       0.244900
     23 C12         14.4490     9.6470    10.4890 c3         1 KGX       0.187800
     24 C13         15.8110     9.6860     9.8240 c5         1 KGX       0.116300
     25 C14         17.2180     8.2040     8.7210 c5         1 KGX       0.268300
     26 C15         17.0430     9.4350     7.8040 c5         1 KGX       0.131300
     27 C16         15.7510    10.0480     8.3370 c5         1 KGX       0.147300
     28 C17         15.6560     6.5130     7.6860 cc         1 KGX       0.416700
     29 C18         16.9710     4.9240     7.2820 ca         1 KGX      -0.099600
     30 C19         17.7500     5.9240     7.8470 ca         1 KGX       0.130500
     31 C20         19.5630     4.6920     7.7650 ca         1 KGX       0.177900
     32 C21         17.6290     3.7210     6.9770 ca         1 KGX       0.440900
     33 C22         13.3370     8.4200    12.2690 c3         1 KGX       0.020800
     34 C23         11.9480     9.0870    12.2770 c          1 KGX       0.694000
     35 C24         20.5300    12.2330    12.5820 ca         1 KGX      -0.088600
     36 C25         20.8750    11.1190    13.3310 ca         1 KGX       0.134500
     37 C26         23.0040    11.6940    13.3510 ca         1 KGX       0.168900
     38 C27         21.5830    13.1120    12.2310 ca         1 KGX       0.437900
     39 N10         19.1880    12.2560    12.3420 nd         1 KGX      -0.545100
     40 N11         22.1000    10.7970    13.7370 nb         1 KGX      -0.208000
     41 N12         22.8170    12.8020    12.6370 nb         1 KGX      -0.307000
     42 N13         21.3830    14.2430    11.5480 nv         1 KGX      -1.058900
     43 N5          16.8880     6.9500     8.0930 na         1 KGX      -0.289300
     44 N6          15.6590     5.3200     7.1840 nd         1 KGX      -0.566100
     45 N7          19.0580     5.8670     8.1010 nb         1 KGX      -0.209000
     46 N8          18.9360     3.6390     7.2350 nb         1 KGX      -0.299000
     47 N9          16.9960     2.6720     6.4200 nv         1 KGX      -1.062900
     48 O2          19.7240     7.3020    16.4960 oh         1 KGX      -0.702000
     49 O6          18.0830    10.3560     7.9910 oh         1 KGX      -0.678000
     50 O7          11.0170     8.3440    12.6320 o          1 KGX      -0.728000
     51 O8          11.8540    10.2710    11.9000 o          1 KGX      -0.728000
     52 H1          15.6670     6.4640    10.8630 hn         1 KGX       0.326500
     53 H2          17.7520     7.8960    16.7360 h1         1 KGX       0.052700
     54 H3          15.9160     7.7990    12.5330 hn         1 KGX       0.363500
     55 H4          15.8640     3.5670    11.4530 h1         1 KGX       0.052700
     56 H5          16.2350     4.2800     9.9000 h1         1 KGX       0.052700
     57 H6          14.7560    11.6960     8.1930 ho         1 KGX       0.514000
     58 H7          20.6300     8.9370    14.5210 h2         1 KGX       0.107700
     59 H8          17.9730     9.9940    15.5600 h1         1 KGX       0.064700
     60 H9          18.6030     6.4240    14.5350 h1         1 KGX       0.105700
     61 H10         16.2810     8.3860    14.6810 h1         1 KGX       0.049200
     62 H11         16.2840     6.7070    15.1680 h1         1 KGX       0.049200
     63 H12         19.2520    10.4290    17.3330 ho         1 KGX       0.507000
     64 H14         13.0050     2.8160     9.3560 hn         1 KGX       0.388000
     65 H15         14.4020     3.1730     8.6200 hn         1 KGX       0.388000
     66 H17         13.8020     5.1200     9.8210 h1         1 KGX       0.038200
     67 H18         13.5050     4.1100    11.2210 h1         1 KGX       0.038200
     68 H19         14.2040    11.2250    12.5610 h1         1 KGX       0.075700
     69 H20         14.4070    10.0070    13.8050 h1         1 KGX       0.075700
     70 H21         13.9930    10.6390    10.3790 h1         1 KGX       0.055200
     71 H22         13.8210     8.9500     9.9260 h1         1 KGX       0.055200
     72 H23         16.4800    10.3950    10.3310 h1         1 KGX       0.089700
     73 H24         18.2620     8.1190     9.0280 h2         1 KGX       0.110700
     74 H25         16.9580     9.1310     6.7550 h1         1 KGX       0.055700
     75 H26         14.9110     9.4960     7.8790 h1         1 KGX       0.033700
     76 H27         14.7660     7.1270     7.7840 h5         1 KGX       0.073800
     77 H28         20.6320     4.5660     7.9420 h5         1 KGX       0.045100
     78 H29         13.3080     7.5460    11.6050 h1         1 KGX       0.041700
     79 H30         13.5360     8.0100    13.2680 h1         1 KGX       0.041700
     80 H31         24.0290    11.4950    13.6390 h5         1 KGX       0.039100
     81 H32         22.1750    14.7420    11.1820 hn         1 KGX       0.497500
     82 H33         20.4890    14.4340    11.1210 hn         1 KGX       0.497500
     83 H34         17.4620     1.7760     6.3920 hn         1 KGX       0.498000
     84 H35         15.9870     2.6760     6.3510 hn         1 KGX       0.498000
     85 H36         20.0630     7.7820    17.2560 ho         1 KGX       0.510000
     86 H37         18.8900     9.9950     7.6020 ho         1 KGX       0.504000
@<TRIPOS>BOND
     1     1     7 1   
     2     1    16 1   
     3     1    52 1   
     4     2    10 1   
     5     2    12 1   
     6     2    48 1   
     7     2    53 1   
     8     3     5 1   
     9     3    11 1   
    10     3    39 2   
    11     4    14 1   
    12     4    16 1   
    13     4    54 1   
    14     5    21 3   
    15     6     9 1   
    16     6    12 1   
    17     7    19 1   
    18     7    55 1   
    19     7    56 1   
    20     8    27 1   
    21     8    57 1   
    22     9    10 1   
    23     9    11 1   
    24     9    58 1   
    25    10    15 1   
    26    10    59 1   
    27    11    36 1   
    28    12    14 1   
    29    12    60 1   
    30    13    24 1   
    31    13    25 1   
    32    14    61 1   
    33    14    62 1   
    34    15    63 1   
    35    16    20 2   
    36    17    22 1   
    37    17    23 1   
    38    17    33 1   
    39    18    19 1   
    40    18    64 1   
    41    18    65 1   
    42    19    66 1   
    43    19    67 1   
    44    21    22 1   
    45    22    68 1   
    46    22    69 1   
    47    23    24 1   
    48    23    70 1   
    49    23    71 1   
    50    24    27 1   
    51    24    72 1   
    52    25    26 1   
    53    25    43 1   
    54    25    73 1   
    55    26    27 1   
    56    26    49 1   
    57    26    74 1   
    58    27    75 1   
    59    28    43 1   
    60    28    44 2   
    61    28    76 1   
    62    29    30 ar  
    63    29    32 ar  
    64    29    44 1   
    65    30    43 1   
    66    30    45 ar  
    67    31    45 ar  
    68    31    46 ar  
    69    31    77 1   
    70    32    46 ar  
    71    32    47 1   
    72    33    34 1   
    73    33    78 1   
    74    33    79 1   
    75    34    50 1   
    76    34    51 1   
    77    35    36 ar  
    78    35    38 ar  
    79    35    39 1   
    80    36    40 ar  
    81    37    40 ar  
    82    37    41 ar  
    83    37    80 1   
    84    38    41 ar  
    85    38    42 1   
    86    42    81 1   
    87    42    82 1   
    88    47    83 1   
    89    47    84 1   
    90    48    85 1   
    91    49    86 1   
@<TRIPOS>SUBSTRUCTURE
     1 KGX         1 TEMP              0 ****  ****    0 ROOT
