@<TRIPOS>MOLECULE
KGY
   62    64     1     0     0
SMALL
abcg2


@<TRIPOS>ATOM
      1 S1          19.6730    64.0760     8.7490 sy         1 KGY       1.235600
      2 C2          20.0060    62.4210     9.2040 cc         1 KGY      -0.481500
      3 O3          19.4180    64.8300     9.9510 o          1 KGY      -0.546500
      4 O4          18.6730    64.0420     7.7120 o          1 KGY      -0.546500
      5 C5          19.8200    61.2420     8.4050 cc         1 KGY       0.360300
      6 C6          20.5650    61.9780    10.3730 cd         1 KGY       0.341300
      7 N7          20.2300    60.1870     9.0550 nd         1 KGY      -0.355300
      8 C8          19.2370    61.0980     7.0430 c3         1 KGY      -0.141400
      9 O9          20.7030    60.6500    10.3000 os         1 KGY      -0.087700
     10 C10         21.0210    62.6250    11.6230 c3         1 KGY      -0.170400
     11 N11         21.0450    64.6850     8.0830 n3         1 KGY      -0.732500
     12 C12         22.1920    64.8750     8.9890 c6         1 KGY       0.192300
     13 C13         23.1700    65.8580     8.3640 c6         1 KGY      -0.072900
     14 C14         23.6810    65.3960     6.9790 c6         1 KGY      -0.079000
     15 C15         22.4490    65.0830     6.1090 c6         1 KGY      -0.072900
     16 C16         21.4450    64.1460     6.7720 c6         1 KGY       0.192300
     17 C17         24.6640    64.2270     7.2150 c          1 KGY       0.590100
     18 C18         24.4840    66.5880     6.4230 c3         1 KGY      -0.301400
     19 O19         25.5510    64.3090     8.0550 o          1 KGY      -0.580100
     20 N20         24.5020    63.1430     6.4360 ns         1 KGY      -0.388400
     21 S21         25.2780    66.4920     4.8110 sy         1 KGY       1.078500
     22 O22         25.8410    67.8140     4.5950 o          1 KGY      -0.529500
     23 O23         24.3430    65.9750     3.8290 o          1 KGY      -0.529500
     24 C24         26.6100    65.3430     4.9630 ca         1 KGY      -0.326500
     25 C25         26.5560    64.1290     4.2810 ca         1 KGY       0.025000
     26 C26         27.6090    63.2380     4.3900 ca         1 KGY      -0.192000
     27 C27         28.7210    63.5540     5.1830 ca         1 KGY       0.202100
     28 C28         28.7700    64.7760     5.8630 ca         1 KGY      -0.192000
     29 C29         27.7130    65.6650     5.7470 ca         1 KGY       0.025000
     30 O30         29.6880    62.6110     5.2290 os         1 KGY      -0.339100
     31 C31         30.8850    62.8640     5.9920 c3         1 KGY       0.258700
     32 C32         31.7490    63.8610     5.3740 c1         1 KGY      -0.212100
     33 C33         32.4590    64.6890     4.8650 c1         1 KGY      -0.072100
     34 C34         33.3140    65.6900     4.2450 c3         1 KGY      -0.017000
     35 O35         25.3370    62.0500     6.5690 oh         1 KGY      -0.415100
     36 H81         18.2210    61.4910     7.0250 hc         1 KGY       0.069033
     37 H82         19.8200    61.6580     6.3120 hc         1 KGY       0.069033
     38 H83         19.2270    60.0470     6.7600 hc         1 KGY       0.069033
     39 H101        22.1110    62.5920    11.6810 hc         1 KGY       0.084700
     40 H102        20.6930    63.6590    11.6560 hc         1 KGY       0.084700
     41 H103        20.6200    62.0870    12.4830 hc         1 KGY       0.084700
     42 H121        21.8320    65.2730     9.9320 h1         1 KGY       0.060700
     43 H122        22.6800    63.9130     9.1840 h1         1 KGY       0.060700
     44 H131        24.0150    65.9960     9.0360 hc         1 KGY       0.072200
     45 H132        22.6710    66.8210     8.2410 hc         1 KGY       0.072200
     46 H151        22.7260    64.6770     5.1380 hc         1 KGY       0.072200
     47 H152        21.9500    66.0320     5.9050 hc         1 KGY       0.072200
     48 H161        20.5620    64.0700     6.1440 h1         1 KGY       0.060700
     49 H162        21.8660    63.1430     6.8980 h1         1 KGY       0.060700
     50 H181        25.2810    66.8650     7.1130 h1         1 KGY       0.111200
     51 H182        23.8200    67.4480     6.3050 h1         1 KGY       0.111200
     52 HN20        23.8430    63.0710     5.6790 hn         1 KGY       0.348500
     53 H25         25.6980    63.8880     3.6710 ha         1 KGY       0.134000
     54 H26         27.5950    62.2970     3.8570 ha         1 KGY       0.136000
     55 H28         29.6200    65.0460     6.4690 ha         1 KGY       0.136000
     56 H29         27.7560    66.6120     6.2690 ha         1 KGY       0.134000
     57 H311        31.3820    61.8960     6.0350 h1         1 KGY       0.076700
     58 H312        30.6170    63.1510     7.0120 h1         1 KGY       0.076700
     59 H341        33.3710    66.5910     4.8600 hc         1 KGY       0.060033
     60 H342        34.3270    65.3060     4.1060 hc         1 KGY       0.060033
     61 H343        32.9230    65.9730     3.2650 hc         1 KGY       0.060033
     62 HO35        26.1610    62.2830     6.1020 ho         1 KGY       0.445000
@<TRIPOS>BOND
     1     1     2 1   
     2     1     3 2   
     3     1     4 2   
     4     1    11 1   
     5     2     5 1   
     6     2     6 2   
     7     5     7 2   
     8     5     8 1   
     9     6     9 1   
    10     6    10 1   
    11     7     9 1   
    12     8    36 1   
    13     8    37 1   
    14     8    38 1   
    15    10    39 1   
    16    10    40 1   
    17    10    41 1   
    18    11    12 1   
    19    11    16 1   
    20    12    13 1   
    21    12    42 1   
    22    12    43 1   
    23    13    14 1   
    24    13    44 1   
    25    13    45 1   
    26    14    15 1   
    27    14    17 1   
    28    14    18 1   
    29    15    16 1   
    30    15    46 1   
    31    15    47 1   
    32    16    48 1   
    33    16    49 1   
    34    17    19 2   
    35    17    20 1   
    36    18    21 1   
    37    18    50 1   
    38    18    51 1   
    39    20    35 1   
    40    20    52 1   
    41    21    22 2   
    42    21    23 2   
    43    21    24 1   
    44    24    25 ar  
    45    24    29 ar  
    46    25    26 ar  
    47    25    53 1   
    48    26    27 ar  
    49    26    54 1   
    50    27    28 ar  
    51    27    30 1   
    52    28    29 ar  
    53    28    55 1   
    54    29    56 1   
    55    30    31 1   
    56    31    32 1   
    57    31    57 1   
    58    31    58 1   
    59    32    33 3   
    60    33    34 1   
    61    34    59 1   
    62    34    60 1   
    63    34    61 1   
    64    35    62 1   
@<TRIPOS>SUBSTRUCTURE
     1 KGY         1 TEMP              0 ****  ****    0 ROOT
