@<TRIPOS>MOLECULE
KGY
   62    64     1     0     0
SMALL
No Charge or Current Charge


@<TRIPOS>ATOM
      1 S1          19.7190    63.6550     8.3840 sy         1 KGY       1.235600
      2 C2          20.4190    62.1120     8.8750 cc         1 KGY      -0.481500
      3 O3          19.1580    64.3000     9.5740 o          1 KGY      -0.546500
      4 O4          18.8700    63.4270     7.2120 o          1 KGY      -0.546500
      5 C5          20.6240    60.9330     8.1350 cc         1 KGY       0.360300
      6 C6          20.8720    61.7980    10.1150 cd         1 KGY       0.341300
      7 N7          21.1710    59.9520     8.8290 nd         1 KGY      -0.355300
      8 C8          20.2510    60.7570     6.6900 c3         1 KGY      -0.141400
      9 O9          21.3400    60.5120    10.1330 os         1 KGY      -0.087700
     10 C10         20.9170    62.5770    11.4000 c3         1 KGY      -0.170400
     11 N11         20.9700    64.6800     7.8510 n3         1 KGY      -0.732500
     12 C12         21.9090    65.1200     8.9070 c6         1 KGY       0.192300
     13 C13         22.8140    66.2550     8.3810 c6         1 KGY      -0.072900
     14 C14         23.7110    65.8290     7.1750 c6         1 KGY      -0.079000
     15 C15         22.7110    65.2390     6.1110 c6         1 KGY      -0.072900
     16 C16         21.6980    64.1910     6.6590 c6         1 KGY       0.192300
     17 C17         24.7900    64.8140     7.7090 c          1 KGY       0.590100
     18 C18         24.4300    67.1290     6.6170 c3         1 KGY      -0.301400
     19 O19         25.7600    65.1900     8.3540 o          1 KGY      -0.580100
     20 N20         24.7090    63.4820     7.3270 ns         1 KGY      -0.388400
     21 S21         25.3280    67.0910     5.0340 sy         1 KGY       1.078500
     22 O22         26.1490    68.3090     5.0130 o          1 KGY      -0.529500
     23 O23         24.3440    66.8340     3.9750 o          1 KGY      -0.529500
     24 C24         26.4420    65.6790     5.1420 ca         1 KGY      -0.326500
     25 C25         26.1720    64.4990     4.4210 ca         1 KGY       0.025000
     26 C26         27.0620    63.4160     4.4980 ca         1 KGY      -0.192000
     27 C27         28.2240    63.4980     5.2790 ca         1 KGY       0.202100
     28 C28         28.4940    64.6810     5.9990 ca         1 KGY      -0.192000
     29 C29         27.6100    65.7710     5.9240 ca         1 KGY       0.025000
     30 O30         29.0500    62.3890     5.3120 os         1 KGY      -0.339100
     31 C31         30.3410    62.3790     5.9550 c3         1 KGY       0.258700
     32 C32         31.2910    63.1880     5.1730 c1         1 KGY      -0.212100
     33 C33         32.0490    63.8780     4.5310 c1         1 KGY      -0.072100
     34 C34         32.9400    64.7370     3.7440 c3         1 KGY      -0.017000
     35 O35         25.8030    62.5860     7.6080 oh         1 KGY      -0.415100
     36 H81         19.1630    60.7990     6.5630 hc         1 KGY       0.069033
     37 H82         20.7030    61.5310     6.0620 hc         1 KGY       0.069033
     38 H83         20.5910    59.7870     6.3110 hc         1 KGY       0.069033
     39 H101        21.4640    63.5160    11.2820 hc         1 KGY       0.084700
     40 H102        19.9050    62.8110    11.7500 hc         1 KGY       0.084700
     41 H103        21.4140    62.0020    12.1900 hc         1 KGY       0.084700
     42 H121        21.3610    65.5100     9.7770 h1         1 KGY       0.060700
     43 H122        22.5260    64.2810     9.2610 h1         1 KGY       0.060700
     44 H131        23.4420    66.6250     9.2040 hc         1 KGY       0.072200
     45 H132        22.1730    67.0990     8.0940 hc         1 KGY       0.072200
     46 H151        23.2540    64.7930     5.2680 hc         1 KGY       0.072200
     47 H152        22.1260    66.0630     5.6790 hc         1 KGY       0.072200
     48 H161        20.9900    63.9630     5.8470 h1         1 KGY       0.060700
     49 H162        22.2110    63.2480     6.8930 h1         1 KGY       0.060700
     50 H181        25.1550    67.4850     7.3580 h1         1 KGY       0.111200
     51 H182        23.6860    67.9220     6.4850 h1         1 KGY       0.111200
     52 HN20        24.0860    63.2020     6.5750 hn         1 KGY       0.348500
     53 H25         25.2830    64.4140     3.7970 ha         1 KGY       0.134000
     54 H26         26.8520    62.5050     3.9440 ha         1 KGY       0.136000
     55 H28         29.3810    64.7780     6.6160 ha         1 KGY       0.136000
     56 H29         27.8330    66.6800     6.4820 ha         1 KGY       0.134000
     57 H311        30.7240    61.3510     6.0020 h1         1 KGY       0.076700
     58 H312        30.2800    62.7510     6.9850 h1         1 KGY       0.076700
     59 H341        33.1060    65.6880     4.2630 hc         1 KGY       0.060033
     60 H342        33.9080    64.2460     3.5950 hc         1 KGY       0.060033
     61 H343        32.4980    64.9460     2.7630 hc         1 KGY       0.060033
     62 HO35        26.5340    63.2130     7.8220 ho         1 KGY       0.445000
@<TRIPOS>BOND
     1     1     2 1   
     2     1     3 2   
     3     1     4 2   
     4     1    11 1   
     5     2     5 1   
     6     2     6 2   
     7     5     7 2   
     8     5     8 1   
     9     6     9 1   
    10     6    10 1   
    11     7     9 1   
    12     8    36 1   
    13     8    37 1   
    14     8    38 1   
    15    10    39 1   
    16    10    40 1   
    17    10    41 1   
    18    11    12 1   
    19    11    16 1   
    20    12    13 1   
    21    12    42 1   
    22    12    43 1   
    23    13    14 1   
    24    13    44 1   
    25    13    45 1   
    26    14    15 1   
    27    14    17 1   
    28    14    18 1   
    29    15    16 1   
    30    15    46 1   
    31    15    47 1   
    32    16    48 1   
    33    16    49 1   
    34    17    19 2   
    35    17    20 1   
    36    18    21 1   
    37    18    50 1   
    38    18    51 1   
    39    20    35 1   
    40    20    52 1   
    41    21    22 2   
    42    21    23 2   
    43    21    24 1   
    44    24    25 ar  
    45    24    29 ar  
    46    25    26 ar  
    47    25    53 1   
    48    26    27 ar  
    49    26    54 1   
    50    27    28 ar  
    51    27    30 1   
    52    28    29 ar  
    53    28    55 1   
    54    29    56 1   
    55    30    31 1   
    56    31    32 1   
    57    31    57 1   
    58    31    58 1   
    59    32    33 3   
    60    33    34 1   
    61    34    59 1   
    62    34    60 1   
    63    34    61 1   
    64    35    62 1   
@<TRIPOS>SUBSTRUCTURE
     1 KGY         1 TEMP              0 ****  ****    0 ROOT
