@<TRIPOS>MOLECULE
KGZ
   70    74     1     0     0
SMALL
abcg2


@<TRIPOS>ATOM
      1 C4          39.9460    22.6010   244.9940 cc         1 KGZ      -0.087000
      2 C14         40.1010    21.5370   238.7560 c3         1 KGZ       0.222100
      3 C5          40.3870    23.2200   246.1460 cd         1 KGZ      -0.326600
      4 C6          39.6330    23.7030   247.3050 c          1 KGZ       0.667700
      5 C11         45.8060    25.5060   247.8070 cx         1 KGZ      -0.098400
      6 C7          41.7950    23.2880   245.9730 cd         1 KGZ       0.452900
      7 C8          44.0070    23.9820   246.7990 c          1 KGZ       0.645100
      8 C9          44.6250    24.5900   248.0050 cx         1 KGZ      -0.244700
      9 C10         46.0190    24.1530   248.3750 cx         1 KGZ      -0.098400
     10 C12         39.7490    21.2200   242.4720 c6         1 KGZ      -0.093400
     11 C13         39.7930    20.7620   241.0210 c6         1 KGZ       0.168800
     12 N2          41.0230    22.3460   244.2510 na         1 KGZ       0.135800
     13 C3          41.1140    21.7290   242.9350 c6         1 KGZ       0.097000
     14 N3          38.3010    23.5690   247.2670 nt         1 KGZ      -0.599000
     15 C1          41.7960    19.6510   244.0900 c1         1 KGZ       0.300900
     16 C2          42.1410    20.5820   243.0290 c3         1 KGZ      -0.023300
     17 O1          40.2160    24.2060   248.2670 o          1 KGZ      -0.646100
     18 N4          42.6560    23.8310   246.9010 ns         1 KGZ      -0.475400
     19 O2          44.6480    23.6510   245.8200 o          1 KGZ      -0.569100
     20 N5          42.1640    22.7610   244.8290 nc         1 KGZ      -0.547800
     21 N6          40.2290    21.8440   240.1640 n3         1 KGZ      -0.720600
     22 C15         38.6660    21.4080   238.3190 ca         1 KGZ      -0.095300
     23 C16         37.6890    22.2830   238.7890 ca         1 KGZ      -0.099000
     24 C17         36.3770    22.1850   238.3540 ca         1 KGZ      -0.107000
     25 C18         35.9900    21.2180   237.4210 ca         1 KGZ      -0.037800
     26 C19         34.6000    21.1240   236.9220 ce         1 KGZ      -0.070400
     27 C20         34.3590    20.8290   235.6390 c2         1 KGZ      -0.203200
     28 C21         32.9950    20.6400   235.0510 c6         1 KGZ      -0.042200
     29 C22         31.9140    20.5170   236.1160 c6         1 KGZ      -0.073400
     30 C23         32.1290    21.5550   237.2080 c6         1 KGZ      -0.073400
     31 C24         33.4720    21.3460   237.8980 c6         1 KGZ      -0.033200
     32 C25         36.9720    20.3350   236.9680 ca         1 KGZ      -0.107000
     33 C26         38.2840    20.4300   237.4090 ca         1 KGZ      -0.099000
     34 C27         41.5630    22.2810   240.5060 c6         1 KGZ       0.137800
     35 C28         41.6360    22.7730   241.9350 c6         1 KGZ       0.197300
     36 F1          40.8470    23.9070   242.0700 f          1 KGZ      -0.246000
     37 H1          38.9510    22.3310   244.6820 h4         1 KGZ       0.154000
     38 H2          40.6500    20.6230   238.4740 h1         1 KGZ       0.041700
     39 H3          40.5660    22.3530   238.1950 h1         1 KGZ       0.041700
     40 H5          46.1240    25.6910   246.7890 hc         1 KGZ       0.081200
     41 H6          43.9580    24.8290   248.8260 hc         1 KGZ       0.094700
     42 H7          46.4840    23.4030   247.7470 hc         1 KGZ       0.081200
     43 H8          46.2330    24.0590   249.4310 hc         1 KGZ       0.081200
     44 H9          39.0070    22.0160   242.5490 hc         1 KGZ       0.068700
     45 H10         39.4080    20.3980   243.1060 hc         1 KGZ       0.068700
     46 H11         38.7860    20.4570   240.7340 h1         1 KGZ       0.045700
     47 H12         40.4310    19.8680   240.9120 h1         1 KGZ       0.045700
     48 H13         37.7410    23.8970   248.0370 hn         1 KGZ       0.314000
     49 H14         37.8100    23.1890   246.4760 hn         1 KGZ       0.314000
     50 H15         42.1980    20.0270   242.0930 hc         1 KGZ       0.093200
     51 H16         43.1380    20.9740   243.2340 hc         1 KGZ       0.093200
     52 H17         42.1870    24.1590   247.7370 hn         1 KGZ       0.363500
     53 H19         37.9580    23.0440   239.5100 ha         1 KGZ       0.119000
     54 H20         35.6530    22.8920   238.7390 ha         1 KGZ       0.114500
     55 H21         35.1960    20.7210   234.9560 ha         1 KGZ       0.172000
     56 H22         32.7740    21.4790   234.3800 hc         1 KGZ       0.047700
     57 H23         33.0010    19.7550   234.4090 hc         1 KGZ       0.047700
     58 H24         30.9260    20.6260   235.6650 hc         1 KGZ       0.041700
     59 H25         31.9480    19.5170   236.5600 hc         1 KGZ       0.041700
     60 H26         32.0990    22.5570   236.7670 hc         1 KGZ       0.042200
     61 H27         31.3260    21.5140   237.9470 hc         1 KGZ       0.042200
     62 H28         33.6850    22.2050   238.5390 hc         1 KGZ       0.046200
     63 H29         33.4180    20.4870   238.5760 hc         1 KGZ       0.046200
     64 H30         36.7040    19.5460   236.2770 ha         1 KGZ       0.114500
     65 H31         39.0180    19.7200   237.0440 ha         1 KGZ       0.119000
     66 H32         42.3240    21.4940   240.3650 h1         1 KGZ       0.049200
     67 H33         41.8580    23.1020   239.8470 h1         1 KGZ       0.049200
     68 H34         42.6640    23.0490   242.1810 h1         1 KGZ       0.089700
     69 H4          45.8700    26.3620   248.4660 hc         1 KGZ       0.081200
     70 N1          41.5210    18.9190   244.9330 n1         1 KGZ      -0.450000
@<TRIPOS>BOND
     1     1     3 2   
     2     1    12 1   
     3     1    37 1   
     4     2    21 1   
     5     2    22 1   
     6     2    38 1   
     7     2    39 1   
     8     3     4 1   
     9     3     6 1   
    10     4    14 1   
    11     4    17 2   
    12     5     8 1   
    13     5     9 1   
    14     5    40 1   
    15     5    69 1   
    16     6    18 1   
    17     6    20 2   
    18     7     8 1   
    19     7    18 1   
    20     7    19 2   
    21     8     9 1   
    22     8    41 1   
    23     9    42 1   
    24     9    43 1   
    25    10    11 1   
    26    10    13 1   
    27    10    44 1   
    28    10    45 1   
    29    11    21 1   
    30    11    46 1   
    31    11    47 1   
    32    12    13 1   
    33    12    20 1   
    34    13    16 1   
    35    13    35 1   
    36    14    48 1   
    37    14    49 1   
    38    15    16 1   
    39    15    70 3   
    40    16    50 1   
    41    16    51 1   
    42    18    52 1   
    43    21    34 1   
    44    22    23 ar  
    45    22    33 ar  
    46    23    24 ar  
    47    23    53 1   
    48    24    25 ar  
    49    24    54 1   
    50    25    26 1   
    51    25    32 ar  
    52    26    27 2   
    53    26    31 1   
    54    27    28 1   
    55    27    55 1   
    56    28    29 1   
    57    28    56 1   
    58    28    57 1   
    59    29    30 1   
    60    29    58 1   
    61    29    59 1   
    62    30    31 1   
    63    30    60 1   
    64    30    61 1   
    65    31    62 1   
    66    31    63 1   
    67    32    33 ar  
    68    32    64 1   
    69    33    65 1   
    70    34    35 1   
    71    34    66 1   
    72    34    67 1   
    73    35    36 1   
    74    35    68 1   
@<TRIPOS>SUBSTRUCTURE
     1 KGZ         1 TEMP              0 ****  ****    0 ROOT
