@<TRIPOS>MOLECULE
KGZ
   70    74     1     0     0
SMALL
No Charge or Current Charge


@<TRIPOS>ATOM
      1 C4          40.1910    22.4490   245.1010 cc         1 KGZ      -0.087000
      2 C14         40.1530    21.4650   238.5950 c3         1 KGZ       0.222100
      3 C5          40.7520    23.0040   246.2230 cd         1 KGZ      -0.326600
      4 C6          40.0250    23.4550   247.4230 c          1 KGZ       0.667700
      5 C11         44.4320    25.7060   248.5960 cx         1 KGZ      -0.098400
      6 C7          42.1350    23.0530   246.0030 cd         1 KGZ       0.452900
      7 C8          44.3310    23.6980   246.9370 c          1 KGZ       0.645100
      8 C9          44.8800    24.3110   248.2020 cx         1 KGZ      -0.244700
      9 C10         45.8380    25.4810   248.0920 cx         1 KGZ      -0.098400
     10 C12         39.7490    21.3340   242.4200 c6         1 KGZ      -0.093400
     11 C13         39.6520    20.8600   240.9480 c6         1 KGZ       0.168800
     12 N2          41.2820    22.2010   244.2590 na         1 KGZ       0.135800
     13 C3          41.2290    21.5670   242.8960 c6         1 KGZ       0.097000
     14 N3          38.6900    23.3010   247.3950 nt         1 KGZ      -0.599000
     15 C1          41.5440    19.2280   243.9040 c1         1 KGZ       0.300900
     16 C2          42.0340    20.2100   242.9270 c3         1 KGZ      -0.023300
     17 O1          40.5670    23.9430   248.4000 o          1 KGZ      -0.646100
     18 N4          42.9690    23.5590   246.9570 ns         1 KGZ      -0.475400
     19 O2          45.0530    23.3600   246.0110 o          1 KGZ      -0.569100
     20 N5          42.4870    22.5710   244.8340 nc         1 KGZ      -0.547800
     21 N6          40.3040    21.8280   240.0250 n3         1 KGZ      -0.720600
     22 C15         38.6980    21.3940   238.1390 ca         1 KGZ      -0.095300
     23 C16         37.9070    22.5580   238.1170 ca         1 KGZ      -0.099000
     24 C17         36.5650    22.4980   237.7030 ca         1 KGZ      -0.107000
     25 C18         35.9950    21.2720   237.3050 ca         1 KGZ      -0.037800
     26 C19         34.5730    21.1950   236.8620 ce         1 KGZ      -0.070400
     27 C20         34.2330    20.5800   235.7030 c2         1 KGZ      -0.203200
     28 C21         32.8040    20.4600   235.1870 c6         1 KGZ      -0.042200
     29 C22         31.7550    20.7230   236.2900 c6         1 KGZ      -0.073400
     30 C23         32.1330    21.9800   237.1020 c6         1 KGZ      -0.073400
     31 C24         33.5030    21.7890   237.7970 c6         1 KGZ      -0.033200
     32 C25         36.7900    20.1100   237.3230 ca         1 KGZ      -0.107000
     33 C26         38.1320    20.1690   237.7390 ca         1 KGZ      -0.099000
     34 C27         41.7280    22.0930   240.3970 c6         1 KGZ       0.137800
     35 C28         41.8960    22.5550   241.8760 c6         1 KGZ       0.197300
     36 F1          41.2980    23.8360   241.9990 f          1 KGZ      -0.246000
     37 H1          39.1640    22.2200   244.8450 h4         1 KGZ       0.154000
     38 H2          40.6420    20.5010   238.4000 h1         1 KGZ       0.041700
     39 H3          40.6630    22.2100   237.9690 h1         1 KGZ       0.041700
     40 H5          43.7440    26.2370   247.9420 hc         1 KGZ       0.081200
     41 H6          45.0610    23.6040   249.0070 hc         1 KGZ       0.094700
     42 H7          46.0850    25.8550   247.1010 hc         1 KGZ       0.081200
     43 H8          46.6500    25.5420   248.8130 hc         1 KGZ       0.081200
     44 H9          39.1780    22.2700   242.5040 hc         1 KGZ       0.068700
     45 H10         39.2360    20.6080   243.0650 hc         1 KGZ       0.068700
     46 H11         38.5860    20.7540   240.6980 h1         1 KGZ       0.045700
     47 H12         40.0980    19.8610   240.8430 h1         1 KGZ       0.045700
     48 H13         38.1460    23.5940   248.1920 hn         1 KGZ       0.314000
     49 H14         38.2450    22.8980   246.5860 hn         1 KGZ       0.314000
     50 H15         42.0440    19.7190   241.9490 hc         1 KGZ       0.093200
     51 H16         43.0860    20.4040   243.1660 hc         1 KGZ       0.093200
     52 H17         42.5320    23.8880   247.8080 hn         1 KGZ       0.363500
     53 H19         38.3340    23.5090   238.4260 ha         1 KGZ       0.119000
     54 H20         35.9740    23.4100   237.6820 ha         1 KGZ       0.114500
     55 H21         35.0040    20.1530   235.0600 ha         1 KGZ       0.172000
     56 H22         32.6610    21.1800   234.3690 hc         1 KGZ       0.047700
     57 H23         32.6450    19.4640   234.7520 hc         1 KGZ       0.047700
     58 H24         30.7590    20.8440   235.8410 hc         1 KGZ       0.041700
     59 H25         31.6950    19.8550   236.9610 hc         1 KGZ       0.041700
     60 H26         32.1750    22.8510   236.4340 hc         1 KGZ       0.042200
     61 H27         31.3600    22.1950   237.8520 hc         1 KGZ       0.042200
     62 H28         33.8310    22.7510   238.2100 hc         1 KGZ       0.046200
     63 H29         33.3800    21.1160   238.6570 hc         1 KGZ       0.046200
     64 H30         36.3640    19.1560   237.0230 ha         1 KGZ       0.114500
     65 H31         38.7290    19.2600   237.7520 ha         1 KGZ       0.119000
     66 H32         42.3380    21.1940   240.2290 h1         1 KGZ       0.049200
     67 H33         42.1460    22.8750   239.7460 h1         1 KGZ       0.049200
     68 H34         42.9640    22.6790   242.1030 h1         1 KGZ       0.089700
     69 H4          44.3020    25.9180   249.6560 hc         1 KGZ       0.081200
     70 N1          41.1280    18.4510   244.6660 n1         1 KGZ      -0.450000
@<TRIPOS>BOND
     1     1     3 2   
     2     1    12 1   
     3     1    37 1   
     4     2    21 1   
     5     2    22 1   
     6     2    38 1   
     7     2    39 1   
     8     3     4 1   
     9     3     6 1   
    10     4    14 1   
    11     4    17 2   
    12     5     8 1   
    13     5     9 1   
    14     5    40 1   
    15     5    69 1   
    16     6    18 1   
    17     6    20 2   
    18     7     8 1   
    19     7    18 1   
    20     7    19 2   
    21     8     9 1   
    22     8    41 1   
    23     9    42 1   
    24     9    43 1   
    25    10    11 1   
    26    10    13 1   
    27    10    44 1   
    28    10    45 1   
    29    11    21 1   
    30    11    46 1   
    31    11    47 1   
    32    12    13 1   
    33    12    20 1   
    34    13    16 1   
    35    13    35 1   
    36    14    48 1   
    37    14    49 1   
    38    15    16 1   
    39    15    70 3   
    40    16    50 1   
    41    16    51 1   
    42    18    52 1   
    43    21    34 1   
    44    22    23 ar  
    45    22    33 ar  
    46    23    24 ar  
    47    23    53 1   
    48    24    25 ar  
    49    24    54 1   
    50    25    26 1   
    51    25    32 ar  
    52    26    27 2   
    53    26    31 1   
    54    27    28 1   
    55    27    55 1   
    56    28    29 1   
    57    28    56 1   
    58    28    57 1   
    59    29    30 1   
    60    29    58 1   
    61    29    59 1   
    62    30    31 1   
    63    30    60 1   
    64    30    61 1   
    65    31    62 1   
    66    31    63 1   
    67    32    33 ar  
    68    32    64 1   
    69    33    65 1   
    70    34    35 1   
    71    34    66 1   
    72    34    67 1   
    73    35    36 1   
    74    35    68 1   
@<TRIPOS>SUBSTRUCTURE
     1 KGZ         1 TEMP              0 ****  ****    0 ROOT
