@<TRIPOS>MOLECULE
KH0
   84    87     1     0     0
SMALL
bcc


@<TRIPOS>ATOM
      1 O26         47.0080   -14.8880     7.4510 o          1 KH0      -0.590000
      2 C24         47.9640   -14.3660     6.9230 c          1 KH0       0.775100
      3 O25         48.5440   -14.7500     5.7930 os         1 KH0      -0.449900
      4 C27         48.1400   -15.9440     5.0640 c3         1 KH0       0.203800
      5 C31         48.3390   -17.1920     5.9150 c3         1 KH0      -0.109767
      6 C32         46.7090   -15.8200     4.5570 c3         1 KH0      -0.109767
      7 C33         49.1060   -15.9650     3.8870 c3         1 KH0      -0.109767
      8 N23         48.6160   -13.2720     7.4060 ns         1 KH0      -0.467100
      9 C19         48.3280   -12.5630     8.5630 cc         1 KH0      -0.035600
     10 C21         49.3550   -11.5820     8.8770 c          1 KH0       0.676700
     11 O22         50.3760   -11.4590     8.1980 o          1 KH0      -0.666500
     12 C18         47.2410   -12.7100     9.3720 cd         1 KH0      -0.095000
     13 C17         47.1140   -11.9020    10.5260 cd         1 KH0      -0.205000
     14 C16         48.0570   -10.9740    10.8030 cc         1 KH0      -0.008400
     15 N15         49.1250   -10.7890     9.9770 n          1 KH0      -0.303000
     16 C20         50.1700    -9.8170    10.2910 c3         1 KH0       0.015700
     17 C22         49.6890    -8.6060    11.0910 c3         1 KH0      -0.052400
     18 C29         48.6410    -7.8040    10.3640 cx         1 KH0      -0.133700
     19 C34         48.6120    -6.3160    10.5270 cx         1 KH0      -0.127400
     20 C30         49.0610    -6.9200     9.2300 cx         1 KH0      -0.127400
     21 C36         51.2920   -10.5380    11.0390 c          1 KH0       0.660100
     22 O37         51.0400   -11.4140    11.8490 o          1 KH0      -0.590100
     23 N38         52.5220   -10.0870    10.7550 ns         1 KH0      -0.563900
     24 C40         53.7350   -10.5790    11.3680 c3         1 KH0       0.122700
     25 C42         54.5620   -11.4030    10.3780 c3         1 KH0      -0.083400
     26 C45         53.8210   -12.6310     9.8440 c5         1 KH0      -0.150700
     27 C47         54.6980   -13.3090     8.7990 c          1 KH0       0.703500
     28 O48         54.9600   -12.8750     7.6900 o          1 KH0      -0.634500
     29 N49         55.1600   -14.4530     9.3310 ns         1 KH0      -0.579900
     30 C51         54.7880   -14.6720    10.7120 c5         1 KH0       0.094000
     31 C54         53.5910   -13.7330    10.8830 c5         1 KH0      -0.089400
     32 C57         54.5180    -9.3930    11.9500 c3         1 KH0       0.044100
     33 O40         54.8460    -8.5150    10.9030 oh         1 KH0      -0.601800
     34 C35         55.7340    -9.9280    12.7050 c          1 KH0       0.636100
     35 O41         55.5820   -10.5990    13.7160 o          1 KH0      -0.593100
     36 N36         56.9250    -9.6360    12.1720 ns         1 KH0      -0.562900
     37 C13         58.1540   -10.2300    12.6530 c3         1 KH0       0.152300
     38 C14         58.2870   -11.6820    12.2610 ca         1 KH0      -0.116300
     39 C28         58.2850   -12.0480    10.9160 ca         1 KH0      -0.109000
     40 C26         58.3930   -13.3800    10.5460 ca         1 KH0      -0.130500
     41 C25         58.5100   -14.3670    11.5180 ca         1 KH0      -0.128000
     42 C23         58.5190   -14.0110    12.8590 ca         1 KH0      -0.130500
     43 C15         58.4040   -12.6760    13.2260 ca         1 KH0      -0.109000
     44 H1          49.3530   -17.2330     6.3150 hc         1 KH0       0.050367
     45 H2          47.6350   -17.2530     6.7430 hc         1 KH0       0.050367
     46 H3          48.1950   -18.0740     5.2910 hc         1 KH0       0.050367
     47 H4          45.9750   -15.8690     5.3570 hc         1 KH0       0.050367
     48 H5          46.5690   -14.8880     4.0080 hc         1 KH0       0.050367
     49 H6          46.5050   -16.6410     3.8680 hc         1 KH0       0.050367
     50 H7          50.1410   -16.0280     4.2250 hc         1 KH0       0.050367
     51 H8          48.9060   -16.8340     3.2600 hc         1 KH0       0.050367
     52 H9          48.9980   -15.0740     3.2670 hc         1 KH0       0.050367
     53 H10         49.4480   -12.9640     6.9210 hn         1 KH0       0.357500
     54 H11         46.4800   -13.4410     9.1530 ha         1 KH0       0.172000
     55 H12         46.2710   -12.0200    11.1890 ha         1 KH0       0.151000
     56 H13         47.9980   -10.3420    11.6740 h4         1 KH0       0.158000
     57 H14         50.5440    -9.4390     9.3380 h1         1 KH0       0.096700
     58 H15         50.5710    -7.9780    11.2480 hc         1 KH0       0.058200
     59 H16         49.3520    -8.8870    12.0920 hc         1 KH0       0.058200
     60 H17         47.6730    -8.2810    10.2580 hc         1 KH0       0.087700
     61 H18         49.3630    -5.8610    11.1610 hc         1 KH0       0.073200
     62 H19         47.6480    -5.8240    10.5580 hc         1 KH0       0.073200
     63 H20         50.1180    -6.8770     8.9920 hc         1 KH0       0.073200
     64 H21         48.4090    -6.8400     8.3700 hc         1 KH0       0.073200
     65 H22         52.6260    -9.3900    10.0320 hn         1 KH0       0.326500
     66 H23         53.4390   -11.2060    12.2090 h1         1 KH0       0.103700
     67 H24         55.4840   -11.7300    10.8660 hc         1 KH0       0.064200
     68 H25         54.8620   -10.7730     9.5360 hc         1 KH0       0.064200
     69 H26         52.8890   -12.3160     9.3680 hc         1 KH0       0.099700
     70 H27         55.8680   -15.0040     8.8690 hn         1 KH0       0.320500
     71 H28         54.5270   -15.7150    10.8890 h1         1 KH0       0.045700
     72 H29         55.6120   -14.4150    11.3840 h1         1 KH0       0.045700
     73 H30         53.5120   -13.3650    11.9050 hc         1 KH0       0.065700
     74 H31         52.6660   -14.2650    10.6580 hc         1 KH0       0.065700
     75 H32         53.8720    -8.9060    12.6910 h1         1 KH0       0.068700
     76 H33         54.9080    -7.6190    11.2480 ho         1 KH0       0.413000
     77 H34         56.9410    -9.1230    11.3050 hn         1 KH0       0.328500
     78 H35         58.9760    -9.6500    12.2330 h1         1 KH0       0.060700
     79 H36         58.2130   -10.1260    13.7370 h1         1 KH0       0.060700
     80 H37         58.1920   -11.2860    10.1510 ha         1 KH0       0.133500
     81 H38         58.3850   -13.6490     9.4970 ha         1 KH0       0.133500
     82 H39         58.5930   -15.4070    11.2290 ha         1 KH0       0.130000
     83 H40         58.6050   -14.7740    13.6220 ha         1 KH0       0.133500
     84 H41         58.4020   -12.4050    14.2750 ha         1 KH0       0.133500
@<TRIPOS>BOND
     1     1     2 2   
     2     2     3 1   
     3     2     8 1   
     4     3     4 1   
     5     4     5 1   
     6     4     6 1   
     7     4     7 1   
     8     5    44 1   
     9     5    45 1   
    10     5    46 1   
    11     6    47 1   
    12     6    48 1   
    13     6    49 1   
    14     7    50 1   
    15     7    51 1   
    16     7    52 1   
    17     8     9 1   
    18     8    53 1   
    19     9    10 1   
    20     9    12 2   
    21    10    11 2   
    22    10    15 1   
    23    12    13 1   
    24    12    54 1   
    25    13    14 2   
    26    13    55 1   
    27    14    15 1   
    28    14    56 1   
    29    15    16 1   
    30    16    17 1   
    31    16    21 1   
    32    16    57 1   
    33    17    18 1   
    34    17    58 1   
    35    17    59 1   
    36    18    19 1   
    37    18    20 1   
    38    18    60 1   
    39    19    20 1   
    40    19    61 1   
    41    19    62 1   
    42    20    63 1   
    43    20    64 1   
    44    21    22 2   
    45    21    23 1   
    46    23    24 1   
    47    23    65 1   
    48    24    25 1   
    49    24    32 1   
    50    24    66 1   
    51    25    26 1   
    52    25    67 1   
    53    25    68 1   
    54    26    27 1   
    55    26    31 1   
    56    26    69 1   
    57    27    28 2   
    58    27    29 1   
    59    29    30 1   
    60    29    70 1   
    61    30    31 1   
    62    30    71 1   
    63    30    72 1   
    64    31    73 1   
    65    31    74 1   
    66    32    33 1   
    67    32    34 1   
    68    32    75 1   
    69    33    76 1   
    70    34    35 2   
    71    34    36 1   
    72    36    37 1   
    73    36    77 1   
    74    37    38 1   
    75    37    78 1   
    76    37    79 1   
    77    38    39 ar  
    78    38    43 ar  
    79    39    40 ar  
    80    39    80 1   
    81    40    41 ar  
    82    40    81 1   
    83    41    42 ar  
    84    41    82 1   
    85    42    43 ar  
    86    42    83 1   
    87    43    84 1   
@<TRIPOS>SUBSTRUCTURE
     1 KH0         1 TEMP              0 ****  ****    0 ROOT
