@<TRIPOS>MOLECULE
KH0
   84    87     1     0     0
SMALL
No Charge or Current Charge


@<TRIPOS>ATOM
      1 O26         46.5910   -14.9240     7.3130 o          1 KH0      -0.541000
      2 C24         47.7240   -14.5950     6.9980 c          1 KH0       0.659100
      3 O25         48.4960   -15.1590     6.0180 os         1 KH0      -0.473100
      4 C27         48.0400   -16.2640     5.2020 c3         1 KH0       0.227000
      5 C31         47.7670   -17.4990     6.0990 c3         1 KH0      -0.109767
      6 C32         46.8020   -15.8270     4.3760 c3         1 KH0      -0.109767
      7 C33         49.2270   -16.5520     4.2570 c3         1 KH0      -0.109767
      8 N23         48.4640   -13.5890     7.5650 ns         1 KH0      -0.400100
      9 C19         48.1740   -12.6910     8.6050 cc         1 KH0      -0.035600
     10 C21         49.2870   -11.7420     8.9150 c          1 KH0       0.534200
     11 O22         50.3570   -11.7700     8.3090 o          1 KH0      -0.591000
     12 C18         46.9750   -12.6710     9.2950 cd         1 KH0      -0.145000
     13 C17         46.8070   -11.7180    10.3560 cd         1 KH0      -0.255000
     14 C16         47.8230   -10.8350    10.6580 cc         1 KH0      -0.058400
     15 N15         49.0290   -10.8010     9.9440 n          1 KH0      -0.236000
     16 C20         50.1600    -9.8730    10.3070 c3         1 KH0       0.015700
     17 C22         49.7720    -8.5490    11.0310 c3         1 KH0      -0.052400
     18 C29         48.8310    -7.6610    10.2160 cx         1 KH0      -0.133700
     19 C34         48.8230    -6.1620    10.4010 cx         1 KH0      -0.127400
     20 C30         49.3640    -6.7650     9.1240 cx         1 KH0      -0.127400
     21 C36         51.2680   -10.6080    11.1010 c          1 KH0       0.593100
     22 O37         51.0600   -11.6130    11.7690 o          1 KH0      -0.590100
     23 N38         52.5250   -10.0480    11.0020 ns         1 KH0      -0.496900
     24 C40         53.7450   -10.5830    11.6180 c3         1 KH0       0.122700
     25 C42         54.6540   -11.2460    10.5400 c3         1 KH0      -0.083400
     26 C45         53.9950   -12.3670     9.6810 c5         1 KH0      -0.150700
     27 C47         55.0040   -12.8950     8.6560 c          1 KH0       0.561000
     28 O48         55.2530   -12.4840     7.5350 o          1 KH0      -0.559000
     29 N49         55.4430   -14.0990     9.1360 ns         1 KH0      -0.512900
     30 C51         54.9250   -14.4550    10.4540 c5         1 KH0       0.094000
     31 C54         53.5950   -13.6520    10.4630 c5         1 KH0      -0.089400
     32 C57         54.4540    -9.4670    12.4390 c3         1 KH0       0.067300
     33 O40         54.7400    -8.3140    11.5920 oh         1 KH0      -0.664000
     34 C35         55.7140   -10.0350    13.1580 c          1 KH0       0.569100
     35 O41         55.6480   -10.7130    14.1740 o          1 KH0      -0.593100
     36 N36         56.9140    -9.7120    12.5650 ns         1 KH0      -0.495900
     37 C13         58.1970   -10.3180    12.9080 c3         1 KH0       0.152300
     38 C14         58.3410   -11.6730    12.2300 ca         1 KH0      -0.116300
     39 C28         58.6050   -11.7490    10.8470 ca         1 KH0      -0.091000
     40 C26         58.7110   -12.9990    10.2130 ca         1 KH0      -0.112500
     41 C25         58.5550   -14.1810    10.9560 ca         1 KH0      -0.110000
     42 C23         58.2890   -14.1120    12.3340 ca         1 KH0      -0.112500
     43 C15         58.1800   -12.8620    12.9690 ca         1 KH0      -0.091000
     44 H1          48.6030   -17.6710     6.7880 hc         1 KH0       0.050367
     45 H2          46.8510   -17.3830     6.6890 hc         1 KH0       0.050367
     46 H3          47.6440   -18.3980     5.4840 hc         1 KH0       0.050367
     47 H4          45.9040   -15.7420     4.9970 hc         1 KH0       0.050367
     48 H5          46.9800   -14.8600     3.8900 hc         1 KH0       0.050367
     49 H6          46.5860   -16.5640     3.5940 hc         1 KH0       0.050367
     50 H7          50.1240   -16.8200     4.8290 hc         1 KH0       0.050367
     51 H8          48.9940   -17.3840     3.5810 hc         1 KH0       0.050367
     52 H9          49.4610   -15.6730     3.6460 hc         1 KH0       0.050367
     53 H10         49.3770   -13.5070     7.1340 hn         1 KH0       0.357500
     54 H11         46.1670   -13.3590     9.0700 ha         1 KH0       0.222000
     55 H12         45.8830   -11.6960    10.9300 ha         1 KH0       0.201000
     56 H13         47.7640   -10.1150    11.4650 h4         1 KH0       0.208000
     57 H14         50.6330    -9.5640     9.3660 h1         1 KH0       0.096700
     58 H15         50.6910    -7.9870    11.2390 hc         1 KH0       0.058200
     59 H16         49.3420    -8.7610    12.0170 hc         1 KH0       0.058200
     60 H17         47.8640    -8.1250    10.0290 hc         1 KH0       0.087700
     61 H18         49.5370    -5.7260    11.0960 hc         1 KH0       0.073200
     62 H19         47.8650    -5.6510    10.3540 hc         1 KH0       0.073200
     63 H20         50.4400    -6.7330     8.9650 hc         1 KH0       0.073200
     64 H21         48.7690    -6.6600     8.2200 hc         1 KH0       0.073200
     65 H22         52.6150    -9.1990    10.4550 hn         1 KH0       0.326500
     66 H23         53.4600   -11.3630    12.3370 h1         1 KH0       0.103700
     67 H24         55.5440   -11.6580    11.0310 hc         1 KH0       0.064200
     68 H25         55.0220   -10.4590     9.8700 hc         1 KH0       0.064200
     69 H26         53.1620   -11.9120     9.1350 hc         1 KH0       0.099700
     70 H27         56.0770   -14.6530     8.5720 hn         1 KH0       0.320500
     71 H28         54.7560   -15.5340    10.5700 h1         1 KH0       0.045700
     72 H29         55.6010   -14.1220    11.2530 h1         1 KH0       0.045700
     73 H30         53.2190   -13.4670    11.4750 hc         1 KH0       0.065700
     74 H31         52.8120   -14.2010     9.9250 hc         1 KH0       0.065700
     75 H32         53.7650    -9.1650    13.2390 h1         1 KH0       0.068700
     76 H33         54.8810    -7.5360    12.1800 ho         1 KH0       0.452000
     77 H34         56.8540    -9.1320    11.7350 hn         1 KH0       0.328500
     78 H35         59.0040    -9.6520    12.5770 h1         1 KH0       0.060700
     79 H36         58.2740   -10.4240    13.9990 h1         1 KH0       0.060700
     80 H37         58.7220   -10.8380    10.2630 ha         1 KH0       0.115500
     81 H38         58.9110   -13.0500     9.1450 ha         1 KH0       0.115500
     82 H39         58.6360   -15.1480    10.4650 ha         1 KH0       0.112000
     83 H40         58.1640   -15.0260    12.9100 ha         1 KH0       0.115500
     84 H41         57.9640   -12.8180    14.0340 ha         1 KH0       0.115500
@<TRIPOS>BOND
     1     1     2 2   
     2     2     3 1   
     3     2     8 1   
     4     3     4 1   
     5     4     5 1   
     6     4     6 1   
     7     4     7 1   
     8     5    44 1   
     9     5    45 1   
    10     5    46 1   
    11     6    47 1   
    12     6    48 1   
    13     6    49 1   
    14     7    50 1   
    15     7    51 1   
    16     7    52 1   
    17     8     9 1   
    18     8    53 1   
    19     9    10 1   
    20     9    12 2   
    21    10    11 2   
    22    10    15 1   
    23    12    13 1   
    24    12    54 1   
    25    13    14 2   
    26    13    55 1   
    27    14    15 1   
    28    14    56 1   
    29    15    16 1   
    30    16    17 1   
    31    16    21 1   
    32    16    57 1   
    33    17    18 1   
    34    17    58 1   
    35    17    59 1   
    36    18    19 1   
    37    18    20 1   
    38    18    60 1   
    39    19    20 1   
    40    19    61 1   
    41    19    62 1   
    42    20    63 1   
    43    20    64 1   
    44    21    22 2   
    45    21    23 1   
    46    23    24 1   
    47    23    65 1   
    48    24    25 1   
    49    24    32 1   
    50    24    66 1   
    51    25    26 1   
    52    25    67 1   
    53    25    68 1   
    54    26    27 1   
    55    26    31 1   
    56    26    69 1   
    57    27    28 2   
    58    27    29 1   
    59    29    30 1   
    60    29    70 1   
    61    30    31 1   
    62    30    71 1   
    63    30    72 1   
    64    31    73 1   
    65    31    74 1   
    66    32    33 1   
    67    32    34 1   
    68    32    75 1   
    69    33    76 1   
    70    34    35 2   
    71    34    36 1   
    72    36    37 1   
    73    36    77 1   
    74    37    38 1   
    75    37    78 1   
    76    37    79 1   
    77    38    39 ar  
    78    38    43 ar  
    79    39    40 ar  
    80    39    80 1   
    81    40    41 ar  
    82    40    81 1   
    83    41    42 ar  
    84    41    82 1   
    85    42    43 ar  
    86    42    83 1   
    87    43    84 1   
@<TRIPOS>SUBSTRUCTURE
     1 KH0         1 TEMP              0 ****  ****    0 ROOT
