@<TRIPOS>MOLECULE
KH1
   81    83     1     0     0
SMALL
No Charge or Current Charge


@<TRIPOS>ATOM
      1 O2           3.0390    -1.0080    -8.4740 oh         1 KH1      -0.662000
      2 C1           0.0430     1.0860    -7.3700 c6         1 KH1       0.211500
      3 C2           1.0940     0.4600    -8.3190 c6         1 KH1      -0.065400
      4 C3           2.1300    -0.3960    -7.5500 c6         1 KH1       0.176300
      5 C4           1.4210    -1.4820    -6.7030 c6         1 KH1      -0.073200
      6 C5           0.3820    -0.8560    -5.7630 ce         1 KH1      -0.067200
      7 C6           0.3650    -1.1620    -4.4320 cf         1 KH1      -0.161000
      8 C7          -0.5610    -0.6140    -3.4370 cf         1 KH1      -0.193000
      9 C8          -0.7230    -1.0140    -2.1430 c2         1 KH1      -0.075400
     10 C9           0.0260    -2.1930    -1.5020 c6         1 KH1      -0.042200
     11 C10         -0.5820     0.0200    -6.4580 ce         1 KH1      -0.124200
     12 C11          0.6660    -1.8220    -0.1370 c6         1 KH1      -0.072400
     13 C12         -0.3300    -1.0860     0.8030 c6         1 KH1      -0.059400
     14 C13         -1.0020     0.1340     0.0970 c5         1 KH1      -0.027000
     15 C14         -1.7430    -0.3750    -1.1820 c5         1 KH1      -0.039500
     16 C15         -2.4740     0.9100    -1.6660 c5         1 KH1      -0.069400
     17 C16         -2.9690     1.5460    -0.3240 c5         1 KH1      -0.074400
     18 C17         -2.2710     0.7230     0.8250 c5         1 KH1      -0.059700
     19 C18          0.1030     1.2210    -0.1610 c3         1 KH1      -0.080100
     20 C19         -1.9220    -0.1220    -6.3480 c2         1 KH1      -0.296000
     21 O1           0.6340     2.1050    -6.5610 oh         1 KH1      -0.656000
     22 C20         -2.0330     1.5320     2.1380 c3         1 KH1       0.186300
     23 O4          -1.4430     0.6340     3.0990 os         1 KH1      -0.466000
     24 C22         -0.8320     1.2410     4.2510 c3         1 KH1       0.165600
     25 C23         -0.1280     0.1210     5.0400 c3         1 KH1      -0.083400
     26 C25          1.2650    -0.4190     7.2380 c3         1 KH1       0.191000
     27 O3           0.2260    -1.2460     7.7710 oh         1 KH1      -0.659000
     28 C26          1.9960     0.2720     8.4370 c3         1 KH1      -0.083900
     29 C27          2.2530    -1.3320     6.4380 c3         1 KH1      -0.083900
     30 C21         -3.3280     2.1190     2.7540 c3         1 KH1      -0.121100
     31 C24          0.6050     0.6480     6.3040 c3         1 KH1      -0.106400
     32 C28          3.0070    -2.4150     7.2490 c3         1 KH1      -0.085600
     33 C29          1.1500     1.2370     9.3040 c3         1 KH1      -0.085600
     34 HO2          3.7160    -1.4750    -7.9360 ho         1 KH1       0.442000
     35 HC1         -0.7480     1.5310    -7.9920 h1         1 KH1       0.036700
     36 HC21         1.6030     1.2500    -8.8860 hc         1 KH1       0.062200
     37 HC22         0.5770    -0.1690    -9.0560 hc         1 KH1       0.062200
     38 HC3          2.6850     0.2650    -6.8660 h1         1 KH1       0.049700
     39 HC41         2.1670    -2.0520    -6.1330 hc         1 KH1       0.051700
     40 HC42         0.9190    -2.2030    -7.3640 hc         1 KH1       0.051700
     41 HC6          1.1300    -1.8520    -4.0810 ha         1 KH1       0.169000
     42 HC7         -1.1770     0.2040    -3.8050 ha         1 KH1       0.173000
     43 HC91        -0.6910    -3.0100    -1.3440 hc         1 KH1       0.045700
     44 HC92         0.8020    -2.6100    -2.1510 hc         1 KH1       0.045700
     45 H111         1.0330    -2.7320     0.3560 hc         1 KH1       0.039700
     46 H112         1.5540    -1.1980    -0.3070 hc         1 KH1       0.039700
     47 H121        -1.1030    -1.7940     1.1320 hc         1 KH1       0.047700
     48 H122         0.2000    -0.7690     1.7110 hc         1 KH1       0.047700
     49 H14         -2.4880    -1.1400    -0.9250 hc         1 KH1       0.054700
     50 H151        -3.3010     0.6810    -2.3480 hc         1 KH1       0.043700
     51 H152        -1.8080     1.6040    -2.1910 hc         1 KH1       0.043700
     52 H161        -4.0600     1.4940    -0.2350 hc         1 KH1       0.041200
     53 H162        -2.7050     2.6090    -0.2840 hc         1 KH1       0.041200
     54 H17         -2.9360    -0.0990     1.1190 hc         1 KH1       0.058700
     55 H181         0.8260     0.9050    -0.9210 hc         1 KH1       0.033700
     56 H182        -0.3080     2.1790    -0.4980 hc         1 KH1       0.033700
     57 H183         0.6670     1.4320     0.7560 hc         1 KH1       0.033700
     58 H191        -2.3640    -0.8980    -5.7230 ha         1 KH1       0.168500
     59 H192        -2.6170     0.5240    -6.8850 ha         1 KH1       0.168500
     60 HO1          0.0160     2.2350    -5.8100 ho         1 KH1       0.444000
     61 H20         -1.3470     2.3600     1.9140 h1         1 KH1       0.032700
     62 H221        -1.5810     1.7210     4.8940 h1         1 KH1       0.019700
     63 H222        -0.0930     1.9940     3.9470 h1         1 KH1       0.019700
     64 H231         0.5890    -0.3660     4.3680 hc         1 KH1       0.049700
     65 H232        -0.8740    -0.6300     5.3250 hc         1 KH1       0.049700
     66 HO3         -0.1730    -1.7200     7.0130 ho         1 KH1       0.440000
     67 H261         2.3900    -0.4980     9.1110 hc         1 KH1       0.043200
     68 H262         2.8670     0.8210     8.0570 hc         1 KH1       0.043200
     69 H271         2.9940    -0.7000     5.9330 hc         1 KH1       0.043200
     70 H272         1.7060    -1.8550     5.6450 hc         1 KH1       0.043200
     71 H211        -4.0060     1.3170     3.0690 hc         1 KH1       0.040367
     72 H212        -3.1070     2.7520     3.6200 hc         1 KH1       0.040367
     73 H213        -3.8560     2.7450     2.0260 hc         1 KH1       0.040367
     74 H241        -0.1250     1.2260     6.8830 hc         1 KH1       0.049700
     75 H242         1.3760     1.3610     5.9850 hc         1 KH1       0.049700
     76 H281         3.5720    -3.0660     6.5710 hc         1 KH1       0.035033
     77 H282         3.7230    -1.9650     7.9460 hc         1 KH1       0.035033
     78 H283         2.3110    -3.0430     7.8170 hc         1 KH1       0.035033
     79 H291         1.7280     1.5610    10.1780 hc         1 KH1       0.035033
     80 H292         0.8690     2.1350     8.7430 hc         1 KH1       0.035033
     81 H293         0.2380     0.7480     9.6660 hc         1 KH1       0.035033
@<TRIPOS>BOND
     1     1     4 1   
     2     1    34 1   
     3     2     3 1   
     4     2    11 1   
     5     2    21 1   
     6     2    35 1   
     7     3     4 1   
     8     3    36 1   
     9     3    37 1   
    10     4     5 1   
    11     4    38 1   
    12     5     6 1   
    13     5    39 1   
    14     5    40 1   
    15     6     7 2   
    16     6    11 1   
    17     7     8 1   
    18     7    41 1   
    19     8     9 2   
    20     8    42 1   
    21     9    10 1   
    22     9    15 1   
    23    10    12 1   
    24    10    43 1   
    25    10    44 1   
    26    11    20 2   
    27    12    13 1   
    28    12    45 1   
    29    12    46 1   
    30    13    14 1   
    31    13    47 1   
    32    13    48 1   
    33    14    15 1   
    34    14    18 1   
    35    14    19 1   
    36    15    16 1   
    37    15    49 1   
    38    16    17 1   
    39    16    50 1   
    40    16    51 1   
    41    17    18 1   
    42    17    52 1   
    43    17    53 1   
    44    18    22 1   
    45    18    54 1   
    46    19    55 1   
    47    19    56 1   
    48    19    57 1   
    49    20    58 1   
    50    20    59 1   
    51    21    60 1   
    52    22    23 1   
    53    22    30 1   
    54    22    61 1   
    55    23    24 1   
    56    24    25 1   
    57    24    62 1   
    58    24    63 1   
    59    25    31 1   
    60    25    64 1   
    61    25    65 1   
    62    26    27 1   
    63    26    28 1   
    64    26    29 1   
    65    26    31 1   
    66    27    66 1   
    67    28    33 1   
    68    28    67 1   
    69    28    68 1   
    70    29    32 1   
    71    29    69 1   
    72    29    70 1   
    73    30    71 1   
    74    30    72 1   
    75    30    73 1   
    76    31    74 1   
    77    31    75 1   
    78    32    76 1   
    79    32    77 1   
    80    32    78 1   
    81    33    79 1   
    82    33    80 1   
    83    33    81 1   
@<TRIPOS>SUBSTRUCTURE
     1 KH1         1 TEMP              0 ****  ****    0 ROOT
