@<TRIPOS>MOLECULE
KH1
   81    83     1     0     0
SMALL
abcg2


@<TRIPOS>ATOM
      1 O2           3.5320    -0.9670    -7.5630 oh         1 KH1      -0.662000
      2 C1           0.8270     1.4070    -6.5630 c6         1 KH1       0.211500
      3 C2           1.9130     0.7520    -7.4060 c6         1 KH1      -0.065400
      4 C3           2.5800    -0.4070    -6.6820 c6         1 KH1       0.176300
      5 C4           1.5300    -1.4360    -6.2560 c6         1 KH1      -0.073200
      6 C5           0.4430    -0.8000    -5.4320 ce         1 KH1      -0.067200
      7 C6           0.1210    -1.2660    -4.2130 cf         1 KH1      -0.161000
      8 C7          -0.8430    -0.6940    -3.2920 cf         1 KH1      -0.193000
      9 C8          -1.1860    -1.2020    -2.0970 c2         1 KH1      -0.075400
     10 C9          -0.6630    -2.4830    -1.5050 c6         1 KH1      -0.042200
     11 C10         -0.1690     0.3760    -6.0780 ce         1 KH1      -0.124200
     12 C11         -0.0670    -2.2590    -0.1100 c6         1 KH1      -0.072400
     13 C12         -1.0050    -1.4960     0.8260 c6         1 KH1      -0.059400
     14 C13         -1.5010    -0.1930     0.1970 c5         1 KH1      -0.027000
     15 C14         -2.1490    -0.5320    -1.1690 c5         1 KH1      -0.039500
     16 C15         -2.8720     0.7470    -1.5670 c5         1 KH1      -0.069400
     17 C16         -3.3620     1.3250    -0.2230 c5         1 KH1      -0.074400
     18 C17         -2.7060     0.4750     0.8930 c5         1 KH1      -0.059700
     19 C18         -0.3450     0.7960     0.0300 c3         1 KH1      -0.080100
     20 C19         -1.4780     0.5350    -6.2640 c2         1 KH1      -0.296000
     21 O1           1.4580     2.0320    -5.4610 oh         1 KH1      -0.656000
     22 C20         -2.4250     1.2940     2.1450 c3         1 KH1       0.186300
     23 O4          -1.7700     0.4570     3.0780 os         1 KH1      -0.466000
     24 C22         -0.9720     1.1190     4.0270 c3         1 KH1       0.165600
     25 C23         -0.1660     0.0870     4.7940 c3         1 KH1      -0.083400
     26 C25          1.6010    -0.1970     6.6770 c3         1 KH1       0.191000
     27 O3           0.7600    -1.0050     7.4890 oh         1 KH1      -0.659000
     28 C26          2.4770     0.6160     7.6390 c3         1 KH1      -0.083900
     29 C27          2.4830    -1.0840     5.7800 c3         1 KH1      -0.083900
     30 C21         -3.7020     1.8770     2.7420 c3         1 KH1      -0.121100
     31 C24          0.7570     0.7540     5.8090 c3         1 KH1      -0.106400
     32 C28          3.4230    -2.0340     6.5110 c3         1 KH1      -0.085600
     33 C29          1.7380     1.5700     8.5710 c3         1 KH1      -0.085600
     34 HO2          4.0320    -1.6330    -7.0800 ho         1 KH1       0.442000
     35 HC1          0.2980     2.1470    -7.1780 h1         1 KH1       0.036700
     36 HC21         2.6560     1.5020    -7.6930 hc         1 KH1       0.062200
     37 HC22         1.4540     0.3840    -8.3290 hc         1 KH1       0.062200
     38 HC3          3.0750    -0.0280    -5.7780 h1         1 KH1       0.049700
     39 HC41         2.0010    -2.2520    -5.7000 hc         1 KH1       0.051700
     40 HC42         1.0960    -1.8690    -7.1660 hc         1 KH1       0.051700
     41 HC6          0.6670    -2.1400    -3.8740 ha         1 KH1       0.169000
     42 HC7         -1.3090     0.2350    -3.5990 ha         1 KH1       0.173000
     43 HC91        -1.5030    -3.1830    -1.4170 hc         1 KH1       0.045700
     44 HC92         0.0720    -2.9680    -2.1470 hc         1 KH1       0.045700
     45 H111         0.1820    -3.2270     0.3330 hc         1 KH1       0.039700
     46 H112         0.8800    -1.7230    -0.2090 hc         1 KH1       0.039700
     47 H121        -1.8730    -2.1250     1.0590 hc         1 KH1       0.047700
     48 H122        -0.5010    -1.3020     1.7740 hc         1 KH1       0.047700
     49 H14         -2.9240    -1.2810    -0.9420 hc         1 KH1       0.054700
     50 H151        -3.6860     0.5590    -2.2680 hc         1 KH1       0.043700
     51 H152        -2.1930     1.4480    -2.0590 hc         1 KH1       0.043700
     52 H161        -4.4490     1.3000    -0.1430 hc         1 KH1       0.041200
     53 H162        -3.0730     2.3750    -0.1260 hc         1 KH1       0.041200
     54 H17         -3.4010    -0.3300     1.1700 hc         1 KH1       0.058700
     55 H181         0.4370     0.4010    -0.6190 hc         1 KH1       0.033700
     56 H182        -0.6660     1.7450    -0.4040 hc         1 KH1       0.033700
     57 H183         0.1150     1.0180     0.9940 hc         1 KH1       0.033700
     58 H191        -2.1970    -0.2060    -5.9410 ha         1 KH1       0.168500
     59 H192        -1.8700     1.4140    -6.7620 ha         1 KH1       0.168500
     60 HO1          0.7750     2.4020    -4.8940 ho         1 KH1       0.444000
     61 H20         -1.7600     2.1270     1.8710 h1         1 KH1       0.032700
     62 H221        -1.5780     1.7120     4.7260 h1         1 KH1       0.019700
     63 H222        -0.2870     1.8220     3.5300 h1         1 KH1       0.019700
     64 H231         0.4040    -0.5050     4.0740 hc         1 KH1       0.049700
     65 H232        -0.8570    -0.5980     5.2960 hc         1 KH1       0.049700
     66 HO3          0.2510    -1.5870     6.9160 ho         1 KH1       0.440000
     67 H261         3.0620    -0.0770     8.2480 hc         1 KH1       0.043200
     68 H262         3.2020     1.1780     7.0430 hc         1 KH1       0.043200
     69 H271         3.0590    -0.4380     5.1100 hc         1 KH1       0.043200
     70 H272         1.8330    -1.6790     5.1310 hc         1 KH1       0.043200
     71 H211        -4.4170     1.0860     2.9780 hc         1 KH1       0.040367
     72 H212        -3.4950     2.4330     3.6580 hc         1 KH1       0.040367
     73 H213        -4.1820     2.5680     2.0490 hc         1 KH1       0.040367
     74 H241         0.1490     1.3790     6.4680 hc         1 KH1       0.049700
     75 H242         1.4370     1.4340     5.2840 hc         1 KH1       0.049700
     76 H281         3.9240    -2.6910     5.8000 hc         1 KH1       0.035033
     77 H282         4.2000    -1.5090     7.0660 hc         1 KH1       0.035033
     78 H283         2.8820    -2.6680     7.2150 hc         1 KH1       0.035033
     79 H291         2.4410     2.0360     9.2630 hc         1 KH1       0.035033
     80 H292         1.2380     2.3760     8.0340 hc         1 KH1       0.035033
     81 H293         0.9890     1.0510     9.1680 hc         1 KH1       0.035033
@<TRIPOS>BOND
     1     1     4 1   
     2     1    34 1   
     3     2     3 1   
     4     2    11 1   
     5     2    21 1   
     6     2    35 1   
     7     3     4 1   
     8     3    36 1   
     9     3    37 1   
    10     4     5 1   
    11     4    38 1   
    12     5     6 1   
    13     5    39 1   
    14     5    40 1   
    15     6     7 2   
    16     6    11 1   
    17     7     8 1   
    18     7    41 1   
    19     8     9 2   
    20     8    42 1   
    21     9    10 1   
    22     9    15 1   
    23    10    12 1   
    24    10    43 1   
    25    10    44 1   
    26    11    20 2   
    27    12    13 1   
    28    12    45 1   
    29    12    46 1   
    30    13    14 1   
    31    13    47 1   
    32    13    48 1   
    33    14    15 1   
    34    14    18 1   
    35    14    19 1   
    36    15    16 1   
    37    15    49 1   
    38    16    17 1   
    39    16    50 1   
    40    16    51 1   
    41    17    18 1   
    42    17    52 1   
    43    17    53 1   
    44    18    22 1   
    45    18    54 1   
    46    19    55 1   
    47    19    56 1   
    48    19    57 1   
    49    20    58 1   
    50    20    59 1   
    51    21    60 1   
    52    22    23 1   
    53    22    30 1   
    54    22    61 1   
    55    23    24 1   
    56    24    25 1   
    57    24    62 1   
    58    24    63 1   
    59    25    31 1   
    60    25    64 1   
    61    25    65 1   
    62    26    27 1   
    63    26    28 1   
    64    26    29 1   
    65    26    31 1   
    66    27    66 1   
    67    28    33 1   
    68    28    67 1   
    69    28    68 1   
    70    29    32 1   
    71    29    69 1   
    72    29    70 1   
    73    30    71 1   
    74    30    72 1   
    75    30    73 1   
    76    31    74 1   
    77    31    75 1   
    78    32    76 1   
    79    32    77 1   
    80    32    78 1   
    81    33    79 1   
    82    33    80 1   
    83    33    81 1   
@<TRIPOS>SUBSTRUCTURE
     1 KH1         1 TEMP              0 ****  ****    0 ROOT
