@<TRIPOS>MOLECULE
KH2
   33    33     1     0     0
SMALL
No Charge or Current Charge


@<TRIPOS>ATOM
      1 S            3.4750    -0.0100    -0.1740 s6         1 KH2       1.309600
      2 C1           1.9210     0.8180    -0.5920 c3         1 KH2      -0.364400
      3 O1           4.4870     0.7930    -0.8750 o          1 KH2      -0.674533
      4 N2          -1.9630     0.3540     0.1860 n4         1 KH2      -0.502000
      5 O2           3.5340     0.0750     1.2920 o          1 KH2      -0.674533
      6 C4           0.6660     0.1570     0.0330 c3         1 KH2      -0.053400
      7 O4           3.3000    -1.3700    -0.7040 o          1 KH2      -0.674533
      8 C7          -0.6310     0.8990    -0.3540 c3         1 KH2       0.098600
      9 C11         -1.9480     0.4120     1.7250 c3         1 KH2       0.076900
     10 C12         -3.5880    -1.6640     0.0200 c6         1 KH2      -0.100900
     11 C13         -4.5260     0.7060    -0.0440 c6         1 KH2      -0.100900
     12 C14         -4.6940    -0.7450    -0.5510 c6         1 KH2      -0.085400
     13 C15         -3.1120     1.2430    -0.3660 c6         1 KH2       0.100100
     14 C16         -2.1840    -1.1050    -0.3050 c6         1 KH2       0.100100
     15 H1           2.0240     1.8510    -0.2450 h1         1 KH2       0.076700
     16 H1A          1.8550     0.8090    -1.6850 h1         1 KH2       0.076700
     17 H4           0.5990    -0.8860    -0.2980 hc         1 KH2       0.072200
     18 H4A          0.7650     0.1440     1.1250 hc         1 KH2       0.072200
     19 H7          -0.7050     0.9080    -1.4430 hx         1 KH2       0.081200
     20 H7A         -0.5460     1.9350    -0.0200 hx         1 KH2       0.081200
     21 H11         -1.7720     1.4410     2.0440 hx         1 KH2       0.091367
     22 H11A        -2.9100     0.0680     2.1090 hx         1 KH2       0.091367
     23 H11B        -1.1540    -0.2330     2.1030 hx         1 KH2       0.091367
     24 H12         -3.7080    -1.7660     1.1060 hc         1 KH2       0.074200
     25 H12A        -3.6870    -2.6740    -0.3990 hc         1 KH2       0.074200
     26 H13         -5.2800     1.3550    -0.5100 hc         1 KH2       0.074200
     27 H13A        -4.7060     0.7500     1.0380 hc         1 KH2       0.074200
     28 H14         -4.6540    -0.7590    -1.6500 hc         1 KH2       0.067200
     29 H14A        -5.6840    -1.1290    -0.2700 hc         1 KH2       0.067200
     30 H15         -2.9660     2.2490     0.0400 hx         1 KH2       0.094200
     31 H15A        -2.9670     1.2950    -1.4500 hx         1 KH2       0.094200
     32 H16         -2.0210    -1.0940    -1.3870 hx         1 KH2       0.094200
     33 H16A        -1.4010    -1.7210     0.1470 hx         1 KH2       0.094200
@<TRIPOS>BOND
     1     1     2 1   
     2     1     3 1   
     3     1     5 1   
     4     1     7 1   
     5     2     6 1   
     6     2    15 1   
     7     2    16 1   
     8     4     8 1   
     9     4     9 1   
    10     4    13 1   
    11     4    14 1   
    12     6     8 1   
    13     6    17 1   
    14     6    18 1   
    15     8    19 1   
    16     8    20 1   
    17     9    21 1   
    18     9    22 1   
    19     9    23 1   
    20    10    12 1   
    21    10    14 1   
    22    10    24 1   
    23    10    25 1   
    24    11    12 1   
    25    11    13 1   
    26    11    26 1   
    27    11    27 1   
    28    12    28 1   
    29    12    29 1   
    30    13    30 1   
    31    13    31 1   
    32    14    32 1   
    33    14    33 1   
@<TRIPOS>SUBSTRUCTURE
     1 KH2         1 TEMP              0 ****  ****    0 ROOT
