@<TRIPOS>MOLECULE
KH2
   33    33     1     0     0
SMALL
bcc


@<TRIPOS>ATOM
      1 S            3.3660     0.0630    -0.0970 s6         1 KH2       1.198800
      2 C1           1.8040     0.8020    -0.6080 c3         1 KH2      -0.253600
      3 O1           4.4050     0.8280    -0.8130 o          1 KH2      -0.674533
      4 N2          -1.9450     0.3100     0.1560 n4         1 KH2      -0.614800
      5 O2           3.4270     0.2290     1.3690 o          1 KH2      -0.674533
      6 C4           0.6080     0.1450     0.0660 c3         1 KH2      -0.053400
      7 O4           3.2920    -1.3510    -0.5160 o          1 KH2      -0.674533
      8 C7          -0.6540     0.8480    -0.4000 c3         1 KH2       0.126800
      9 C11         -1.9020     0.3260     1.6420 c3         1 KH2       0.105100
     10 C12         -3.5570    -1.6170     0.0030 c6         1 KH2      -0.100900
     11 C13         -4.4340     0.7230     0.0020 c6         1 KH2      -0.100900
     12 C14         -4.6610    -0.6970    -0.4980 c6         1 KH2      -0.085400
     13 C15         -3.0430     1.2160    -0.3420 c6         1 KH2       0.128300
     14 C16         -2.1840    -1.0850    -0.3580 c6         1 KH2       0.128300
     15 H1           1.8540     1.8650    -0.3630 h1         1 KH2       0.076700
     16 H1A          1.7450     0.7130    -1.6950 h1         1 KH2       0.076700
     17 H4           0.5880    -0.9150    -0.1870 hc         1 KH2       0.072200
     18 H4A          0.7260     0.2300     1.1460 hc         1 KH2       0.072200
     19 H7          -0.7450     0.7920    -1.4850 hx         1 KH2       0.081200
     20 H7A         -0.6200     1.9030    -0.1240 hx         1 KH2       0.081200
     21 H11         -1.6230     1.3220     1.9780 hx         1 KH2       0.091367
     22 H11A        -2.8720     0.0700     2.0510 hx         1 KH2       0.091367
     23 H11B        -1.1750    -0.3980     1.9960 hx         1 KH2       0.091367
     24 H12         -3.6410    -1.7720     1.0810 hc         1 KH2       0.074200
     25 H12A        -3.6410    -2.6050    -0.4520 hc         1 KH2       0.074200
     26 H13         -5.1340     1.4160    -0.4680 hc         1 KH2       0.074200
     27 H13A        -4.6200     0.7930     1.0760 hc         1 KH2       0.074200
     28 H14         -4.6710    -0.7030    -1.5920 hc         1 KH2       0.067200
     29 H14A        -5.6350    -1.0620    -0.1700 hc         1 KH2       0.067200
     30 H15         -2.8520     2.2040     0.0740 hx         1 KH2       0.094200
     31 H15A        -2.9210     1.2730    -1.4250 hx         1 KH2       0.094200
     32 H16         -2.0680    -1.0340    -1.4420 hx         1 KH2       0.094200
     33 H16A        -1.3970    -1.7230     0.0400 hx         1 KH2       0.094200
@<TRIPOS>BOND
     1     1     2 1   
     2     1     3 1   
     3     1     5 1   
     4     1     7 1   
     5     2     6 1   
     6     2    15 1   
     7     2    16 1   
     8     4     8 1   
     9     4     9 1   
    10     4    13 1   
    11     4    14 1   
    12     6     8 1   
    13     6    17 1   
    14     6    18 1   
    15     8    19 1   
    16     8    20 1   
    17     9    21 1   
    18     9    22 1   
    19     9    23 1   
    20    10    12 1   
    21    10    14 1   
    22    10    24 1   
    23    10    25 1   
    24    11    12 1   
    25    11    13 1   
    26    11    26 1   
    27    11    27 1   
    28    12    28 1   
    29    12    29 1   
    30    13    30 1   
    31    13    31 1   
    32    14    32 1   
    33    14    33 1   
@<TRIPOS>SUBSTRUCTURE
     1 KH2         1 TEMP              0 ****  ****    0 ROOT
