@<TRIPOS>MOLECULE
KH3
   72    74     1     0     0
SMALL
No Charge or Current Charge


@<TRIPOS>ATOM
      1 O            1.6250    -3.3760     1.7190 o          1 KH3      -0.735000
      2 C            0.4890    -2.9400     1.8570 c          1 KH3       0.694000
      3 CA           0.3050    -1.4430     2.3490 c3         1 KH3       0.014500
      4 N            1.3990    -0.8860     3.2250 n8         1 KH3      -1.004200
      5 CB           0.0330    -0.5030     1.1440 c3         1 KH3      -0.090400
      6 CG          -0.4440     0.9140     1.5600 c3         1 KH3       0.160800
      7 ND          -0.9340     1.7960     0.4560 n3         1 KH3      -0.737600
      8 CE          -2.1720     1.3160    -0.2290 c3         1 KH3       0.177800
      9 C11         -3.3980     1.0510     0.6930 c3         1 KH3       0.155800
     10 N12         -4.6180     0.7310    -0.0890 n7         1 KH3      -0.861400
     11 C13         -5.8170     0.4420     0.7160 c3         1 KH3       0.163800
     12 C14         -7.0110     0.1150    -0.2030 c3         1 KH3      -0.078400
     13 C15         -8.3040    -0.2010     0.5810 c3         1 KH3      -0.074400
     14 C16         -9.5030    -0.5290    -0.3360 c3         1 KH3      -0.075400
     15 C17        -10.7950    -0.8450     0.4490 c3         1 KH3      -0.075400
     16 C18        -11.9920    -1.1710    -0.4650 c3         1 KH3      -0.088100
     17 C5           0.1130     2.2220    -0.5190 c3         1 KH3       0.191800
     18 C4           1.3580     2.9560     0.0830 c5         1 KH3       0.169300
     19 O4           2.3890     1.9980     0.4390 os         1 KH3      -0.427000
     20 C1           3.2800     1.8140    -0.6890 c5         1 KH3       0.314300
     21 C2           2.8340     2.8570    -1.7850 c5         1 KH3       0.086300
     22 O2           3.9270     3.4470    -2.5130 oh         1 KH3      -0.686000
     23 C3           2.0880     3.9100    -0.9170 c5         1 KH3       0.100300
     24 O3           3.0180     4.7960    -0.2770 oh         1 KH3      -0.691000
     25 N9           3.3270     0.3950    -1.0570 na         1 KH3      -0.279300
     26 C8           2.7140    -0.2040    -2.1640 cc         1 KH3       0.423700
     27 N7           3.0370    -1.5070    -2.2650 nd         1 KH3      -0.548100
     28 C7           3.8730    -1.7150    -1.1640 ca         1 KH3      -0.091600
     29 C6           4.5370    -2.8890    -0.7500 ca         1 KH3       0.452900
     30 N6           4.4550    -4.0610    -1.4350 nv         1 KH3      -1.066900
     31 C9           4.0510    -0.5750    -0.4220 ca         1 KH3       0.143500
     32 N3           4.8300    -0.5460     0.6770 nb         1 KH3      -0.212000
     33 C10          5.4270    -1.7180     1.0030 ca         1 KH3       0.176900
     34 N1           5.3250    -2.8940     0.3370 nb         1 KH3      -0.312000
     35 OXT         -0.5070    -3.6450     1.7700 o          1 KH3      -0.735000
     36 H1          -0.6060    -1.4470     2.9630 h1         1 KH3       0.037700
     37 H2           1.5500    -1.5280     4.0120 hn         1 KH3       0.386500
     38 H3           2.2820    -0.9500     2.7060 hn         1 KH3       0.386500
     39 H5           0.9340    -0.4290     0.5250 hc         1 KH3       0.043200
     40 H6          -0.7370    -0.9720     0.5220 hc         1 KH3       0.043200
     41 H7          -1.2380     0.7950     2.3090 h1         1 KH3       0.055700
     42 H8           0.3790     1.4100     2.0920 h1         1 KH3       0.055700
     43 H10         -2.4790     2.0720    -0.9640 h1         1 KH3       0.028700
     44 H11         -1.9580     0.4010    -0.7960 h1         1 KH3       0.028700
     45 H12         -3.1610     0.2190     1.3700 h1         1 KH3       0.044200
     46 H13         -3.5680     1.9430     1.3120 h1         1 KH3       0.044200
     47 H14         -4.8280     1.5320    -0.6960 hn         1 KH3       0.392000
     48 H16         -5.6330    -0.4140     1.3810 h1         1 KH3       0.028200
     49 H17         -6.0730     1.3060     1.3440 h1         1 KH3       0.028200
     50 H18         -7.1950     0.9650    -0.8720 hc         1 KH3       0.043200
     51 H19         -6.7540    -0.7440    -0.8350 hc         1 KH3       0.043200
     52 H20         -8.1190    -1.0500     1.2510 hc         1 KH3       0.036700
     53 H21         -8.5590     0.6570     1.2150 hc         1 KH3       0.036700
     54 H22         -9.6880     0.3210    -1.0050 hc         1 KH3       0.037200
     55 H23         -9.2480    -1.3870    -0.9700 hc         1 KH3       0.037200
     56 H24        -10.6150    -1.6950     1.1190 hc         1 KH3       0.035700
     57 H25        -11.0550     0.0120     1.0830 hc         1 KH3       0.035700
     58 H26        -12.8830    -1.3880     0.1360 hc         1 KH3       0.028700
     59 H27        -12.2200    -0.3250    -1.1230 hc         1 KH3       0.028700
     60 H28        -11.7770    -2.0480    -1.0880 hc         1 KH3       0.028700
     61 H29          0.4520     1.3570    -1.1040 h1         1 KH3       0.032200
     62 H30         -0.3480     2.9160    -1.2350 h1         1 KH3       0.032200
     63 H31          1.0360     3.5040     0.9780 h1         1 KH3       0.084700
     64 H32          4.2990     2.0630    -0.3650 h2         1 KH3       0.110700
     65 H33          2.1230     2.4060    -2.4890 h1         1 KH3       0.042700
     66 H34          3.5830     3.7320    -3.3940 ho         1 KH3       0.499000
     67 H35          1.3710     4.4870    -1.5170 h1         1 KH3       0.038700
     68 H36          3.8060     4.7960    -0.8730 ho         1 KH3       0.497000
     69 H37          2.0720     0.3360    -2.8490 h5         1 KH3       0.070800
     70 H38          4.0560    -4.0180    -2.3690 hn         1 KH3       0.503000
     71 H39          5.1680    -4.7660    -1.2720 hn         1 KH3       0.503000
     72 H40          6.0610    -1.7120     1.8880 h5         1 KH3       0.038100
@<TRIPOS>BOND
     1     1     2 1   
     2     2     3 1   
     3     2    35 1   
     4     3     4 1   
     5     3     5 1   
     6     3    36 1   
     7     4    37 1   
     8     4    38 1   
     9     5     6 1   
    10     5    39 1   
    11     5    40 1   
    12     6     7 1   
    13     6    41 1   
    14     6    42 1   
    15     7     8 1   
    16     7    17 1   
    17     8     9 1   
    18     8    43 1   
    19     8    44 1   
    20     9    10 1   
    21     9    45 1   
    22     9    46 1   
    23    10    11 1   
    24    10    47 1   
    25    11    12 1   
    26    11    48 1   
    27    11    49 1   
    28    12    13 1   
    29    12    50 1   
    30    12    51 1   
    31    13    14 1   
    32    13    52 1   
    33    13    53 1   
    34    14    15 1   
    35    14    54 1   
    36    14    55 1   
    37    15    16 1   
    38    15    56 1   
    39    15    57 1   
    40    16    58 1   
    41    16    59 1   
    42    16    60 1   
    43    17    18 1   
    44    17    61 1   
    45    17    62 1   
    46    18    19 1   
    47    18    23 1   
    48    18    63 1   
    49    19    20 1   
    50    20    21 1   
    51    20    25 1   
    52    20    64 1   
    53    21    22 1   
    54    21    23 1   
    55    21    65 1   
    56    22    66 1   
    57    23    24 1   
    58    23    67 1   
    59    24    68 1   
    60    25    26 1   
    61    25    31 1   
    62    26    27 2   
    63    26    69 1   
    64    27    28 1   
    65    28    29 ar  
    66    28    31 ar  
    67    29    30 1   
    68    29    34 ar  
    69    30    70 1   
    70    30    71 1   
    71    31    32 ar  
    72    32    33 ar  
    73    33    34 ar  
    74    33    72 1   
@<TRIPOS>SUBSTRUCTURE
     1 KH3         1 TEMP              0 ****  ****    0 ROOT
