@<TRIPOS>MOLECULE
KH3
   72    74     1     0     0
SMALL
abcg2


@<TRIPOS>ATOM
      1 O            0.9440    -4.3990     0.4420 o          1 KH3      -0.735000
      2 C           -0.0830    -3.7100     0.2860 c          1 KH3       0.694000
      3 CA          -0.1440    -2.3460     1.0250 c3         1 KH3       0.014500
      4 N            1.1050    -1.9460     1.6630 n8         1 KH3      -1.004200
      5 CB          -0.6440    -1.2340     0.1050 c3         1 KH3      -0.090400
      6 CG          -0.8280     0.0910     0.8450 c3         1 KH3       0.160800
      7 ND          -1.3050     1.2210     0.0590 n3         1 KH3      -0.737600
      8 CE          -2.6260     1.0370    -0.5160 c3         1 KH3       0.177800
      9 C11         -3.7080     0.7220     0.5070 c3         1 KH3       0.155800
     10 N12         -5.0040     0.7230    -0.1420 n7         1 KH3      -0.861400
     11 C13         -6.1030     0.4450     0.7630 c3         1 KH3       0.163800
     12 C14         -7.4290     0.4060     0.0200 c3         1 KH3      -0.078400
     13 C15         -8.6260     0.2220     0.9440 c3         1 KH3      -0.074400
     14 C16         -9.9470     0.1230     0.1920 c3         1 KH3      -0.075400
     15 C17        -11.1600     0.0200     1.1090 c3         1 KH3      -0.075400
     16 C18        -12.4690    -0.1020     0.3420 c3         1 KH3      -0.088100
     17 C5          -0.3900     1.6990    -0.9600 c3         1 KH3       0.191800
     18 C4           0.9800     2.1150    -0.4630 c5         1 KH3       0.169300
     19 O4           1.8380     0.9930    -0.3180 os         1 KH3      -0.427000
     20 C1           3.1500     1.4700    -0.3170 c5         1 KH3       0.314300
     21 C2           3.1890     2.5650    -1.3880 c5         1 KH3       0.086300
     22 O2           4.1250     3.5280    -1.0110 oh         1 KH3      -0.686000
     23 C3           1.7100     3.0470    -1.4430 c5         1 KH3       0.100300
     24 O3           1.5060     4.3690    -1.0400 oh         1 KH3      -0.691000
     25 N9           4.0290     0.3610    -0.5530 na         1 KH3      -0.279300
     26 C8           3.9930    -0.5010    -1.6180 cc         1 KH3       0.423700
     27 N7           4.8940    -1.4340    -1.5560 nd         1 KH3      -0.548100
     28 C7           5.5670    -1.1810    -0.3880 ca         1 KH3      -0.091600
     29 C6           6.6480    -1.8170     0.2510 ca         1 KH3       0.452900
     30 N6           7.2480    -2.8970    -0.2490 nv         1 KH3      -1.066900
     31 C9           5.0420    -0.0720     0.2550 ca         1 KH3       0.143500
     32 N3           5.4550     0.4450     1.4090 nb         1 KH3      -0.212000
     33 C10          6.4700    -0.2360     1.9130 ca         1 KH3       0.176900
     34 N1           7.0760    -1.3090     1.4120 nb         1 KH3      -0.312000
     35 OXT         -1.0910    -4.0260    -0.3790 o          1 KH3      -0.735000
     36 H1          -0.8970    -2.4720     1.8180 h1         1 KH3       0.037700
     37 H2           1.5870    -2.7910     1.9460 hn         1 KH3       0.386500
     38 H3           1.7040    -1.5360     0.9560 hn         1 KH3       0.386500
     39 H5           0.0670    -1.1120    -0.7200 hc         1 KH3       0.043200
     40 H6          -1.5870    -1.5530    -0.3410 hc         1 KH3       0.043200
     41 H7          -1.5280    -0.0650     1.6710 h1         1 KH3       0.055700
     42 H8           0.1100     0.3780     1.3200 h1         1 KH3       0.055700
     43 H10         -2.8970     1.9770    -1.0100 h1         1 KH3       0.028700
     44 H11         -2.6500     0.2670    -1.3040 h1         1 KH3       0.028700
     45 H12         -3.5540    -0.2720     0.9380 h1         1 KH3       0.044200
     46 H13         -3.6390     1.4390     1.3410 h1         1 KH3       0.044200
     47 H14         -5.1580     1.6320    -0.5620 hn         1 KH3       0.392000
     48 H16         -5.9230    -0.5270     1.2340 h1         1 KH3       0.028200
     49 H17         -6.1640     1.1760     1.5870 h1         1 KH3       0.028200
     50 H18         -7.5550     1.3370    -0.5450 hc         1 KH3       0.043200
     51 H19         -7.4010    -0.4010    -0.7200 hc         1 KH3       0.043200
     52 H20         -8.4880    -0.6790     1.5520 hc         1 KH3       0.036700
     53 H21         -8.6710     1.0590     1.6500 hc         1 KH3       0.036700
     54 H22        -10.0620     0.9980    -0.4580 hc         1 KH3       0.037200
     55 H23         -9.9210    -0.7460    -0.4750 hc         1 KH3       0.037200
     56 H24        -11.0410    -0.8420     1.7720 hc         1 KH3       0.035700
     57 H25        -11.1950     0.8990     1.7600 hc         1 KH3       0.035700
     58 H26        -13.3270    -0.1600     1.0130 hc         1 KH3       0.028700
     59 H27        -12.6220     0.7580    -0.3150 hc         1 KH3       0.028700
     60 H28        -12.4770    -0.9970    -0.2830 hc         1 KH3       0.028700
     61 H29         -0.2550     0.9920    -1.7970 h1         1 KH3       0.032200
     62 H30         -0.8430     2.5950    -1.3960 h1         1 KH3       0.032200
     63 H31          0.8810     2.6390     0.4990 h1         1 KH3       0.084700
     64 H32          3.4340     1.8990     0.6530 h2         1 KH3       0.110700
     65 H33          3.4480     2.1170    -2.3550 h1         1 KH3       0.042700
     66 H34          4.3400     4.0740    -1.7730 ho         1 KH3       0.499000
     67 H35          1.3290     2.8800    -2.4590 h1         1 KH3       0.038700
     68 H36          1.7580     4.9580    -1.7570 ho         1 KH3       0.497000
     69 H37          3.2680    -0.3910    -2.4120 h5         1 KH3       0.070800
     70 H38          6.9810    -3.2760    -1.1410 hn         1 KH3       0.503000
     71 H39          8.0420    -3.2980     0.2210 hn         1 KH3       0.503000
     72 H40          6.8640     0.1240     2.8570 h5         1 KH3       0.038100
@<TRIPOS>BOND
     1     1     2 1   
     2     2     3 1   
     3     2    35 1   
     4     3     4 1   
     5     3     5 1   
     6     3    36 1   
     7     4    37 1   
     8     4    38 1   
     9     5     6 1   
    10     5    39 1   
    11     5    40 1   
    12     6     7 1   
    13     6    41 1   
    14     6    42 1   
    15     7     8 1   
    16     7    17 1   
    17     8     9 1   
    18     8    43 1   
    19     8    44 1   
    20     9    10 1   
    21     9    45 1   
    22     9    46 1   
    23    10    11 1   
    24    10    47 1   
    25    11    12 1   
    26    11    48 1   
    27    11    49 1   
    28    12    13 1   
    29    12    50 1   
    30    12    51 1   
    31    13    14 1   
    32    13    52 1   
    33    13    53 1   
    34    14    15 1   
    35    14    54 1   
    36    14    55 1   
    37    15    16 1   
    38    15    56 1   
    39    15    57 1   
    40    16    58 1   
    41    16    59 1   
    42    16    60 1   
    43    17    18 1   
    44    17    61 1   
    45    17    62 1   
    46    18    19 1   
    47    18    23 1   
    48    18    63 1   
    49    19    20 1   
    50    20    21 1   
    51    20    25 1   
    52    20    64 1   
    53    21    22 1   
    54    21    23 1   
    55    21    65 1   
    56    22    66 1   
    57    23    24 1   
    58    23    67 1   
    59    24    68 1   
    60    25    26 1   
    61    25    31 1   
    62    26    27 2   
    63    26    69 1   
    64    27    28 1   
    65    28    29 ar  
    66    28    31 ar  
    67    29    30 1   
    68    29    34 ar  
    69    30    70 1   
    70    30    71 1   
    71    31    32 ar  
    72    32    33 ar  
    73    33    34 ar  
    74    33    72 1   
@<TRIPOS>SUBSTRUCTURE
     1 KH3         1 TEMP              0 ****  ****    0 ROOT
