@<TRIPOS>MOLECULE
KH5
   66    70     1     0     0
SMALL
bcc


@<TRIPOS>ATOM
      1 N1          22.6830   -69.9330     1.0320 nc         1 KH5      -0.541800
      2 N2          22.1850   -69.3460     2.1330 na         1 KH5       0.112400
      3 C1          22.2650   -70.1260     3.2120 cc         1 KH5      -0.068300
      4 C2          22.8650   -71.3050     2.8160 cd         1 KH5      -0.392900
      5 C3          23.0970   -71.1130     1.4290 cd         1 KH5       0.511200
      6 N3          23.6810   -72.0580     0.6120 ns         1 KH5      -0.542400
      7 C4          24.0070   -71.9380    -0.7050 c          1 KH5       0.711100
      8 O1          23.8070   -70.9330    -1.3610 o          1 KH5      -0.568100
      9 C5          24.6350   -73.1620    -1.2680 cx         1 KH5      -0.243700
     10 C6          25.7120   -72.9870    -2.3070 cx         1 KH5      -0.098400
     11 C7          24.3760   -73.4860    -2.7160 cx         1 KH5      -0.098400
     12 C8          23.2060   -72.4980     3.5950 c          1 KH5       0.733700
     13 O2          23.7030   -73.4840     3.0460 o          1 KH5      -0.646100
     14 N4          22.9500   -72.4650     4.9090 nt         1 KH5      -0.663000
     15 C9          21.5990   -68.0130     1.9950 c6         1 KH5       0.099700
     16 C10         21.1390   -67.4960     3.3570 c6         1 KH5      -0.088900
     17 C11         20.7210   -66.0340     3.2890 c6         1 KH5       0.169300
     18 N5          21.8050   -65.2130     2.7940 n3         1 KH5      -0.730600
     19 C12         22.1860   -65.6080     1.4540 c6         1 KH5       0.169300
     20 C13         22.6540   -67.0550     1.4310 c6         1 KH5      -0.088900
     21 C14         21.5210   -63.7990     2.8970 c3         1 KH5       0.220100
     22 C15         21.4890   -63.3190     4.3250 ca         1 KH5      -0.090300
     23 C16         20.5760   -62.3510     4.7300 ca         1 KH5      -0.118500
     24 C17         20.5670   -61.8760     6.0340 ca         1 KH5      -0.121000
     25 C18         21.4680   -62.3640     6.9800 cp         1 KH5      -0.030000
     26 C19         22.3800   -63.3380     6.5700 ca         1 KH5      -0.121000
     27 C20         22.3920   -63.8050     5.2660 ca         1 KH5      -0.118500
     28 C21         21.4510   -61.8740     8.3730 cp         1 KH5      -0.036000
     29 C22         21.1760   -60.5350     8.6590 ca         1 KH5      -0.117500
     30 C23         21.1580   -60.0760     9.9680 ca         1 KH5      -0.129000
     31 C24         21.4160   -60.9470    11.0180 ca         1 KH5      -0.124000
     32 C25         21.6920   -62.2810    10.7470 ca         1 KH5      -0.129000
     33 C26         21.7090   -62.7390     9.4380 ca         1 KH5      -0.117500
     34 C27         20.4190   -68.1350     1.0070 c3         1 KH5      -0.028300
     35 C28         19.4450   -69.1210     1.4430 c1         1 KH5       0.209700
     36 N6          18.6840   -69.9070     1.7960 n1         1 KH5      -0.366800
     37 H1          21.9010   -69.8140     4.1770 h4         1 KH5       0.171000
     38 H2          23.9050   -72.9180     1.0970 hn         1 KH5       0.362500
     39 H3          24.7420   -74.0040    -0.5950 hc         1 KH5       0.093700
     40 H4          26.5390   -73.6830    -2.2700 hc         1 KH5       0.080950
     41 H5          25.9820   -71.9740    -2.5740 hc         1 KH5       0.080950
     42 H6          23.7270   -72.8170    -3.2650 hc         1 KH5       0.080950
     43 H7          24.2670   -74.5330    -2.9660 hc         1 KH5       0.080950
     44 H8          23.2090   -73.2460     5.4880 hn         1 KH5       0.313500
     45 H9          22.6120   -71.6440     5.3790 hn         1 KH5       0.313500
     46 H10         20.3110   -68.0910     3.7490 hc         1 KH5       0.069450
     47 H11         21.9650   -67.5760     4.0690 hc         1 KH5       0.069450
     48 H12         20.4520   -65.7130     4.2960 h1         1 KH5       0.040700
     49 H13         19.8100   -65.9210     2.6760 h1         1 KH5       0.040700
     50 H15         23.0110   -64.9750     1.1200 h1         1 KH5       0.040700
     51 H16         21.3700   -65.4530     0.7280 h1         1 KH5       0.040700
     52 H17         22.9230   -67.3430     0.4140 hc         1 KH5       0.069450
     53 H18         23.5520   -67.1400     2.0480 hc         1 KH5       0.069450
     54 H19         22.3120   -63.2610     2.3660 h1         1 KH5       0.041700
     55 H20         20.5780   -63.5190     2.3990 h1         1 KH5       0.041700
     56 H21         19.8520   -61.9670     4.0210 ha         1 KH5       0.136500
     57 H22         19.8280   -61.1380     6.3190 ha         1 KH5       0.133500
     58 H23         23.1060   -63.7290     7.2740 ha         1 KH5       0.133500
     59 H24         23.1070   -64.5640     4.9740 ha         1 KH5       0.136500
     60 H25         20.9920   -59.8390     7.8500 ha         1 KH5       0.131000
     61 H26         20.9480   -59.0330    10.1660 ha         1 KH5       0.131000
     62 H27         21.4010   -60.5900    12.0400 ha         1 KH5       0.131000
     63 H28         21.8870   -62.9700    11.5580 ha         1 KH5       0.131000
     64 H29         21.9040   -63.7870     9.2470 ha         1 KH5       0.131000
     65 H30         20.7840   -68.4280     0.0210 hc         1 KH5       0.093200
     66 H31         19.9090   -67.1790     0.8870 hc         1 KH5       0.093200
@<TRIPOS>BOND
     1     1     2 1   
     2     1     5 2   
     3     2     3 1   
     4     2    15 1   
     5     3     4 2   
     6     3    37 1   
     7     4     5 1   
     8     4    12 1   
     9     5     6 1   
    10     6     7 1   
    11     6    38 1   
    12     7     8 2   
    13     7     9 1   
    14     9    10 1   
    15     9    11 1   
    16     9    39 1   
    17    10    11 1   
    18    10    40 1   
    19    10    41 1   
    20    11    42 1   
    21    11    43 1   
    22    12    13 2   
    23    12    14 1   
    24    14    44 1   
    25    14    45 1   
    26    15    16 1   
    27    15    20 1   
    28    15    34 1   
    29    16    17 1   
    30    16    46 1   
    31    16    47 1   
    32    17    18 1   
    33    17    48 1   
    34    17    49 1   
    35    18    19 1   
    36    18    21 1   
    37    19    20 1   
    38    19    50 1   
    39    19    51 1   
    40    20    52 1   
    41    20    53 1   
    42    21    22 1   
    43    21    54 1   
    44    21    55 1   
    45    22    23 ar  
    46    22    27 ar  
    47    23    24 ar  
    48    23    56 1   
    49    24    25 ar  
    50    24    57 1   
    51    25    26 ar  
    52    25    28 1   
    53    26    27 ar  
    54    26    58 1   
    55    27    59 1   
    56    28    29 ar  
    57    28    33 ar  
    58    29    30 ar  
    59    29    60 1   
    60    30    31 ar  
    61    30    61 1   
    62    31    32 ar  
    63    31    62 1   
    64    32    33 ar  
    65    32    63 1   
    66    33    64 1   
    67    34    35 1   
    68    34    65 1   
    69    34    66 1   
    70    35    36 3   
@<TRIPOS>SUBSTRUCTURE
     1 KH5         1 TEMP              0 ****  ****    0 ROOT
