@<TRIPOS>MOLECULE
KH5
   66    70     1     0     0
SMALL
No Charge or Current Charge


@<TRIPOS>ATOM
      1 N1          22.4880   -69.9380     0.6890 nc         1 KH5      -0.541800
      2 N2          22.0300   -69.3600     1.8620 na         1 KH5       0.133800
      3 C1          22.1560   -70.2190     2.9620 cc         1 KH5      -0.101000
      4 C2          22.7280   -71.3520     2.4410 cd         1 KH5      -0.327600
      5 C3          22.9050   -71.1230     1.0700 cd         1 KH5       0.445900
      6 N3          23.4560   -72.0860     0.2740 ns         1 KH5      -0.475400
      7 C4          23.7160   -72.0610    -1.0690 c          1 KH5       0.644100
      8 O1          23.4690   -71.1220    -1.8110 o          1 KH5      -0.568100
      9 C5          24.3390   -73.3400    -1.5730 cx         1 KH5      -0.243700
     10 C6          25.6780   -73.7770    -1.0070 cx         1 KH5      -0.098400
     11 C7          25.5920   -73.2580    -2.4230 cx         1 KH5      -0.098400
     12 C8          23.0790   -72.5710     3.1930 c          1 KH5       0.666700
     13 O2          23.5850   -73.5570     2.6880 o          1 KH5      -0.646100
     14 N4          22.8060   -72.5470     4.5100 nt         1 KH5      -0.596000
     15 C9          21.4240   -67.9810     1.8780 c6         1 KH5       0.129000
     16 C10         21.2270   -67.4670     3.3470 c6         1 KH5      -0.088900
     17 C11         20.8280   -65.9750     3.4180 c6         1 KH5       0.169300
     18 N5          21.8320   -65.1180     2.7330 n3         1 KH5      -0.730600
     19 C12         22.0220   -65.5150     1.3150 c6         1 KH5       0.169300
     20 C13         22.4360   -67.0020     1.1950 c6         1 KH5      -0.088900
     21 C14         21.5510   -63.6690     2.8730 c3         1 KH5       0.220100
     22 C15         21.5500   -63.1890     4.3230 ca         1 KH5      -0.090300
     23 C16         20.3650   -62.7230     4.9230 ca         1 KH5      -0.100500
     24 C17         20.3700   -62.2850     6.2580 ca         1 KH5      -0.103000
     25 C18         21.5580   -62.3010     7.0320 cp         1 KH5      -0.030000
     26 C19         22.7410   -62.7750     6.4120 ca         1 KH5      -0.103000
     27 C20         22.7380   -63.2120     5.0760 ca         1 KH5      -0.100500
     28 C21         21.5620   -61.8350     8.4570 cp         1 KH5      -0.036000
     29 C22         20.7340   -60.7640     8.8800 ca         1 KH5      -0.099500
     30 C23         20.7380   -60.3260    10.2160 ca         1 KH5      -0.111000
     31 C24         21.5690   -60.9520    11.1590 ca         1 KH5      -0.106000
     32 C25         22.3970   -62.0150    10.7640 ca         1 KH5      -0.111000
     33 C26         22.3940   -62.4510     9.4270 ca         1 KH5      -0.099500
     34 C27         20.0650   -67.9960     1.0830 c3         1 KH5      -0.028300
     35 C28         19.0630   -68.9370     1.5990 c1         1 KH5       0.298900
     36 N6          18.2700   -69.6700     2.0360 n1         1 KH5      -0.456000
     37 H1          21.8420   -69.9660     3.9660 h4         1 KH5       0.153000
     38 H2          23.7210   -72.9490     0.7320 hn         1 KH5       0.362500
     39 H3          23.6290   -74.1230    -1.8240 hc         1 KH5       0.093700
     40 H4          25.8480   -74.8420    -0.8680 hc         1 KH5       0.080950
     41 H5          26.1630   -73.1410    -0.2690 hc         1 KH5       0.080950
     42 H6          26.0140   -72.2750    -2.6270 hc         1 KH5       0.080950
     43 H7          25.7050   -73.9750    -3.2330 hc         1 KH5       0.080950
     44 H8          23.0260   -73.3550     5.0700 hn         1 KH5       0.313500
     45 H9          22.3880   -71.7300     4.9240 hn         1 KH5       0.313500
     46 H10         20.4740   -68.0640     3.8780 hc         1 KH5       0.069450
     47 H11         22.1650   -67.5870     3.9080 hc         1 KH5       0.069450
     48 H12         20.7470   -65.6970     4.4790 h1         1 KH5       0.040700
     49 H13         19.8300   -65.8300     2.9780 h1         1 KH5       0.040700
     50 H15         22.8090   -64.9000     0.8540 h1         1 KH5       0.040700
     51 H16         21.1040   -65.3350     0.7370 h1         1 KH5       0.040700
     52 H17         22.5580   -67.2520     0.1320 hc         1 KH5       0.069450
     53 H18         23.4280   -67.1240     1.6500 hc         1 KH5       0.069450
     54 H19         22.3120   -63.0900     2.3320 h1         1 KH5       0.041700
     55 H20         20.5830   -63.4280     2.4110 h1         1 KH5       0.041700
     56 H21         19.4370   -62.7040     4.3560 ha         1 KH5       0.118500
     57 H22         19.4380   -61.9430     6.7010 ha         1 KH5       0.115500
     58 H23         23.6760   -62.7920     6.9660 ha         1 KH5       0.115500
     59 H24         23.6590   -63.5720     4.6230 ha         1 KH5       0.118500
     60 H25         20.0930   -60.2570     8.1640 ha         1 KH5       0.113000
     61 H26         20.0980   -59.5010    10.5190 ha         1 KH5       0.113000
     62 H27         21.5720   -60.6140    12.1930 ha         1 KH5       0.113000
     63 H28         23.0400   -62.5030    11.4930 ha         1 KH5       0.113000
     64 H29         23.0320   -63.2840     9.1460 ha         1 KH5       0.113000
     65 H30         20.2510   -68.2630     0.0360 hc         1 KH5       0.093200
     66 H31         19.6010   -67.0060     1.0560 hc         1 KH5       0.093200
@<TRIPOS>BOND
     1     1     2 1   
     2     1     5 2   
     3     2     3 1   
     4     2    15 1   
     5     3     4 2   
     6     3    37 1   
     7     4     5 1   
     8     4    12 1   
     9     5     6 1   
    10     6     7 1   
    11     6    38 1   
    12     7     8 2   
    13     7     9 1   
    14     9    10 1   
    15     9    11 1   
    16     9    39 1   
    17    10    11 1   
    18    10    40 1   
    19    10    41 1   
    20    11    42 1   
    21    11    43 1   
    22    12    13 2   
    23    12    14 1   
    24    14    44 1   
    25    14    45 1   
    26    15    16 1   
    27    15    20 1   
    28    15    34 1   
    29    16    17 1   
    30    16    46 1   
    31    16    47 1   
    32    17    18 1   
    33    17    48 1   
    34    17    49 1   
    35    18    19 1   
    36    18    21 1   
    37    19    20 1   
    38    19    50 1   
    39    19    51 1   
    40    20    52 1   
    41    20    53 1   
    42    21    22 1   
    43    21    54 1   
    44    21    55 1   
    45    22    23 ar  
    46    22    27 ar  
    47    23    24 ar  
    48    23    56 1   
    49    24    25 ar  
    50    24    57 1   
    51    25    26 ar  
    52    25    28 1   
    53    26    27 ar  
    54    26    58 1   
    55    27    59 1   
    56    28    29 ar  
    57    28    33 ar  
    58    29    30 ar  
    59    29    60 1   
    60    30    31 ar  
    61    30    61 1   
    62    31    32 ar  
    63    31    62 1   
    64    32    33 ar  
    65    32    63 1   
    66    33    64 1   
    67    34    35 1   
    68    34    65 1   
    69    34    66 1   
    70    35    36 3   
@<TRIPOS>SUBSTRUCTURE
     1 KH5         1 TEMP              0 ****  ****    0 ROOT
