@<TRIPOS>MOLECULE
KH6
   55    59     1     0     0
SMALL
abcg2


@<TRIPOS>ATOM
      1 C5          91.9010    -9.2760    14.2600 c          1 KH6       0.636700
      2 C7          95.0480    -9.9240    12.4890 cc         1 KH6      -0.075000
      3 C8          92.8420   -10.4320    11.6630 cd         1 KH6      -0.119000
      4 C10         93.6180    -9.8260    12.6110 cc         1 KH6       0.105600
      5 N12         90.7620    -8.6940    16.3720 na         1 KH6       0.179800
      6 C15         91.3050    -6.7030    16.8160 cc         1 KH6       0.260900
      7 C26         93.6810    -3.9710    14.2210 c6         1 KH6       0.057500
      8 C28         90.9920    -3.6850    13.4670 c6         1 KH6       0.132100
      9 C1          91.9830    -7.0290    15.6320 cc         1 KH6      -0.250600
     10 C2          91.6100    -8.3460    15.3800 cd         1 KH6      -0.163600
     11 C3          93.4510   -11.1270    10.6010 cd         1 KH6      -0.042000
     12 N4          94.8380   -11.1710    10.5200 na         1 KH6       0.115100
     13 N6          92.9090   -11.7790     9.6010 nc         1 KH6      -0.289600
     14 C9          92.9720    -6.1930    14.9180 c          1 KH6       0.661700
     15 C11         93.9460   -12.2570     8.8540 cc         1 KH6       0.141400
     16 N13         90.5870    -7.7180    17.2480 nd         1 KH6      -0.506800
     17 C14         95.6250   -10.5860    11.4430 cd         1 KH6      -0.042000
     18 C16         95.1530   -11.8960     9.3990 cd         1 KH6      -0.271100
     19 N17         93.1240    -9.1100    13.6940 ns         1 KH6      -0.405100
     20 N18         92.6790    -4.8980    14.7300 n          1 KH6      -0.391800
     21 N20         96.6160    -8.9290    14.2720 n1         1 KH6      -0.425000
     22 O21         91.0930   -10.1160    13.9180 o          1 KH6      -0.579100
     23 O22         94.0490    -6.6840    14.5690 o          1 KH6      -0.632100
     24 C23         93.7120   -13.0540     7.6500 ca         1 KH6      -0.025800
     25 O24         91.9600    -2.7650    13.0260 os         1 KH6      -0.440000
     26 C25         90.0620    -9.9470    16.5900 c3         1 KH6       0.067900
     27 C27         91.3540    -4.3010    14.8110 c6         1 KH6       0.057500
     28 C29         93.2230    -3.3780    12.9000 c6         1 KH6       0.132100
     29 C30         92.4180   -13.4590     7.3180 ca         1 KH6      -0.086000
     30 C31         94.7670   -13.4290     6.8160 ca         1 KH6      -0.086000
     31 C32         92.1870   -14.2210     6.1830 ca         1 KH6      -0.117000
     32 C33         94.5340   -14.1900     5.6810 ca         1 KH6      -0.117000
     33 C34         93.2430   -14.5910     5.3600 ca         1 KH6      -0.102000
     34 H1          91.7660   -10.3950    11.6820 ha         1 KH6       0.171000
     35 H2          91.3360    -5.7780    17.3710 h4         1 KH6       0.048100
     36 H3          93.8170    -3.1780    14.9620 h1         1 KH6       0.069950
     37 H4          94.6320    -4.4810    14.0940 h1         1 KH6       0.069950
     38 H5          90.0460    -3.1510    13.5590 h1         1 KH6       0.057200
     39 H6          90.8560    -4.4900    12.7300 h1         1 KH6       0.057200
     40 H7          96.6940   -10.6780    11.3220 h4         1 KH6       0.156000
     41 H8          96.1750   -12.0870     9.1170 h4         1 KH6       0.235000
     42 H9          93.7040    -8.3540    14.0790 hn         1 KH6       0.384500
     43 H10         89.6880    -9.9280    17.6090 h1         1 KH6       0.072033
     44 H11         89.2280   -10.0520    15.9010 h1         1 KH6       0.072033
     45 H12         90.7350   -10.7910    16.4740 h1         1 KH6       0.072033
     46 H13         90.6060    -5.0480    15.0600 h1         1 KH6       0.069950
     47 H14         91.3470    -3.5380    15.5950 h1         1 KH6       0.069950
     48 H15         93.1980    -4.1670    12.1350 h1         1 KH6       0.057200
     49 H16         93.9290    -2.6140    12.5750 h1         1 KH6       0.057200
     50 H17         91.5910   -13.1770     7.9550 ha         1 KH6       0.121000
     51 H18         95.7800   -13.1230     7.0450 ha         1 KH6       0.121000
     52 H19         91.1780   -14.5290     5.9420 ha         1 KH6       0.112500
     53 H20         95.3630   -14.4700     5.0450 ha         1 KH6       0.112500
     54 H21         93.0620   -15.1850     4.4740 ha         1 KH6       0.112000
     55 C19         95.9110    -9.3680    13.4730 cg         1 KH6       0.319000
@<TRIPOS>BOND
     1     1    10 1   
     2     1    19 1   
     3     1    22 2   
     4     2     4 1   
     5     2    17 2   
     6     2    55 1   
     7     3     4 2   
     8     3    11 1   
     9     3    34 1   
    10     4    19 1   
    11     5    10 1   
    12     5    16 1   
    13     5    26 1   
    14     6     9 1   
    15     6    16 2   
    16     6    35 1   
    17     7    20 1   
    18     7    28 1   
    19     7    36 1   
    20     7    37 1   
    21     8    25 1   
    22     8    27 1   
    23     8    38 1   
    24     8    39 1   
    25     9    10 2   
    26     9    14 1   
    27    11    12 1   
    28    11    13 2   
    29    12    17 1   
    30    12    18 1   
    31    13    15 1   
    32    14    20 1   
    33    14    23 2   
    34    15    18 2   
    35    15    24 1   
    36    17    40 1   
    37    18    41 1   
    38    19    42 1   
    39    20    27 1   
    40    21    55 3   
    41    24    29 ar  
    42    24    30 ar  
    43    25    28 1   
    44    26    43 1   
    45    26    44 1   
    46    26    45 1   
    47    27    46 1   
    48    27    47 1   
    49    28    48 1   
    50    28    49 1   
    51    29    31 ar  
    52    29    50 1   
    53    30    32 ar  
    54    30    51 1   
    55    31    33 ar  
    56    31    52 1   
    57    32    33 ar  
    58    32    53 1   
    59    33    54 1   
@<TRIPOS>SUBSTRUCTURE
     1 KH6         1 TEMP              0 ****  ****    0 ROOT
