@<TRIPOS>MOLECULE
KH6
   55    59     1     0     0
SMALL
No Charge or Current Charge


@<TRIPOS>ATOM
      1 C5          92.0460    -9.5020    14.3580 c          1 KH6       0.636700
      2 C7          94.9960    -9.6260    12.0130 cc         1 KH6      -0.075000
      3 C8          92.7940   -10.6600    11.6620 cd         1 KH6      -0.119000
      4 C10         93.6020    -9.8220    12.4160 cc         1 KH6       0.105600
      5 N12         90.5870    -8.7230    16.3410 na         1 KH6       0.179800
      6 C15         91.0990    -6.7070    16.6310 cc         1 KH6       0.260900
      7 C26         93.8100    -3.8850    14.7350 c6         1 KH6       0.057500
      8 C28         91.1620    -3.2700    13.7400 c6         1 KH6       0.132100
      9 C1          91.8770    -7.1270    15.5400 cc         1 KH6      -0.250600
     10 C2          91.5710    -8.4760    15.3580 cd         1 KH6      -0.163600
     11 C3          93.3960   -11.2960    10.5430 cd         1 KH6      -0.042000
     12 N4          94.7040   -11.1070    10.2130 na         1 KH6       0.115100
     13 N6          92.8350   -12.1150     9.6720 nc         1 KH6      -0.289600
     14 C9          92.8590    -6.2310    14.8620 c          1 KH6       0.661700
     15 C11         93.8490   -12.4270     8.7890 cc         1 KH6       0.141400
     16 N13         90.3110    -7.6240    17.1320 nd         1 KH6      -0.506800
     17 C14         95.5620   -10.2610    10.9070 cd         1 KH6      -0.042000
     18 C16         95.0450   -11.8040     9.0840 cd         1 KH6      -0.271100
     19 N17         93.0720    -9.1360    13.5140 ns         1 KH6      -0.405100
     20 N18         92.6880    -4.8330    15.0160 n          1 KH6      -0.391800
     21 N20         96.5640    -8.1190    13.4220 n1         1 KH6      -0.425000
     22 O21         91.5590   -10.6220    14.3090 o          1 KH6      -0.579100
     23 O22         93.8020    -6.6550    14.2160 o          1 KH6      -0.632100
     24 C23         93.6940   -13.3050     7.6180 ca         1 KH6      -0.025800
     25 O24         92.2730    -2.3570    13.5990 os         1 KH6      -0.440000
     26 C25         89.8780    -9.9870    16.6030 c3         1 KH6       0.067900
     27 C27         91.3470    -4.1630    14.9970 c6         1 KH6       0.057500
     28 C29         93.5430    -3.0310    13.4710 c6         1 KH6       0.132100
     29 C30         92.4040   -13.6910     7.1880 ca         1 KH6      -0.086000
     30 C31         94.8160   -13.8240     6.9290 ca         1 KH6      -0.086000
     31 C32         92.2380   -14.5490     6.0870 ca         1 KH6      -0.117000
     32 C33         94.6480   -14.6820     5.8280 ca         1 KH6      -0.117000
     33 C34         93.3600   -15.0430     5.4040 ca         1 KH6      -0.102000
     34 H1          91.7430   -10.8160    11.8770 ha         1 KH6       0.171000
     35 H2          91.1000    -5.7360    17.1070 h4         1 KH6       0.048100
     36 H3          93.9300    -3.2150    15.5980 h1         1 KH6       0.069950
     37 H4          94.7600    -4.4230    14.6160 h1         1 KH6       0.069950
     38 H5          90.2300    -2.6940    13.8230 h1         1 KH6       0.057200
     39 H6          91.0960    -3.8990    12.8400 h1         1 KH6       0.057200
     40 H7          96.5850   -10.1630    10.5630 h4         1 KH6       0.156000
     41 H8          96.0220   -11.7930     8.6160 h4         1 KH6       0.235000
     42 H9          93.5210    -8.2670    13.7840 hn         1 KH6       0.384500
     43 H10         89.2020    -9.8690    17.4590 h1         1 KH6       0.072033
     44 H11         89.2920   -10.2680    15.7210 h1         1 KH6       0.072033
     45 H12         90.6050   -10.7760    16.8280 h1         1 KH6       0.072033
     46 H13         90.5330    -4.9000    14.9890 h1         1 KH6       0.069950
     47 H14         91.2350    -3.5490    15.9020 h1         1 KH6       0.069950
     48 H15         93.5310    -3.6700    12.5760 h1         1 KH6       0.057200
     49 H16         94.3380    -2.2820    13.3480 h1         1 KH6       0.057200
     50 H17         91.5210   -13.3210     7.7040 ha         1 KH6       0.121000
     51 H18         95.8250   -13.5740     7.2440 ha         1 KH6       0.121000
     52 H19         91.2380   -14.8310     5.7640 ha         1 KH6       0.112500
     53 H20         95.5200   -15.0710     5.3060 ha         1 KH6       0.112500
     54 H21         93.2320   -15.7080     4.5520 ha         1 KH6       0.112000
     55 C19         95.8370    -8.7820    12.7950 cg         1 KH6       0.319000
@<TRIPOS>BOND
     1     1    10 1   
     2     1    19 1   
     3     1    22 2   
     4     2     4 1   
     5     2    17 2   
     6     2    55 1   
     7     3     4 2   
     8     3    11 1   
     9     3    34 1   
    10     4    19 1   
    11     5    10 1   
    12     5    16 1   
    13     5    26 1   
    14     6     9 1   
    15     6    16 2   
    16     6    35 1   
    17     7    20 1   
    18     7    28 1   
    19     7    36 1   
    20     7    37 1   
    21     8    25 1   
    22     8    27 1   
    23     8    38 1   
    24     8    39 1   
    25     9    10 2   
    26     9    14 1   
    27    11    12 1   
    28    11    13 2   
    29    12    17 1   
    30    12    18 1   
    31    13    15 1   
    32    14    20 1   
    33    14    23 2   
    34    15    18 2   
    35    15    24 1   
    36    17    40 1   
    37    18    41 1   
    38    19    42 1   
    39    20    27 1   
    40    21    55 3   
    41    24    29 ar  
    42    24    30 ar  
    43    25    28 1   
    44    26    43 1   
    45    26    44 1   
    46    26    45 1   
    47    27    46 1   
    48    27    47 1   
    49    28    48 1   
    50    28    49 1   
    51    29    31 ar  
    52    29    50 1   
    53    30    32 ar  
    54    30    51 1   
    55    31    33 ar  
    56    31    52 1   
    57    32    33 ar  
    58    32    53 1   
    59    33    54 1   
@<TRIPOS>SUBSTRUCTURE
     1 KH6         1 TEMP              0 ****  ****    0 ROOT
