@<TRIPOS>MOLECULE
KH8
   67    71     1     0     0
SMALL
No Charge or Current Charge


@<TRIPOS>ATOM
      1 C24         33.8600    20.4640   235.7220 ca         1 KH8      -0.091500
      2 C25         36.5230    19.9480   237.3550 ca         1 KH8       0.151100
      3 C26         37.8660    20.0180   237.7640 ca         1 KH8      -0.209000
      4 C27         41.4640    21.9130   240.4290 c6         1 KH8       0.169300
      5 C28         41.5990    22.3860   241.8960 c6         1 KH8      -0.088900
      6 C1          41.3630    19.0760   243.9620 c1         1 KH8       0.297900
      7 C2          41.8210    20.0610   242.9740 c3         1 KH8      -0.027300
      8 C3          40.9750    21.3880   242.9270 c6         1 KH8       0.128000
      9 C4          39.9110    22.1600   245.1600 cc         1 KH8      -0.101000
     10 C5          40.4330    22.7950   246.2600 cd         1 KH8      -0.328600
     11 C6          39.6940    23.1610   247.4810 c          1 KH8       0.666700
     12 C7          41.7910    23.0160   245.9920 cd         1 KH8       0.445900
     13 C9          44.4200    24.6360   248.0940 cx         1 KH8      -0.243700
     14 C15         38.4260    21.2390   238.1850 ca         1 KH8      -0.047300
     15 C18         35.7030    21.1120   237.3550 cp         1 KH8      -0.067000
     16 C8          43.9150    23.9450   246.8510 c          1 KH8       0.644100
     17 C14         39.8850    21.3150   238.6350 c3         1 KH8       0.218100
     18 C20         33.2730    21.7330   237.7080 ca         1 KH8      -0.091500
     19 C21         31.9250    21.7340   237.3100 ca         1 KH8      -0.114000
     20 C22         31.5440    21.1000   236.1170 ca         1 KH8      -0.107000
     21 C23         32.5120    20.4660   235.3220 ca         1 KH8      -0.114000
     22 N1          40.9720    18.2960   244.7340 n1         1 KH8      -0.455000
     23 N2          40.9970    22.0450   244.2820 na         1 KH8       0.134800
     24 N3          38.3890    22.8360   247.4980 nt         1 KH8      -0.596000
     25 O1          40.1990    23.7240   248.4370 o          1 KH8      -0.646100
     26 N4          42.5840    23.6340   246.9160 ns         1 KH8      -0.476400
     27 O2          44.6450    23.6930   245.9040 o          1 KH8      -0.569100
     28 C10         45.2160    25.9190   247.9460 cx         1 KH8      -0.098900
     29 C11         43.8100    25.9660   248.4950 cx         1 KH8      -0.098900
     30 N5          42.1620    22.5710   244.8160 nc         1 KH8      -0.541800
     31 C12         39.5040    21.1170   242.4530 c6         1 KH8      -0.088900
     32 C13         39.4170    20.6600   240.9780 c6         1 KH8       0.169300
     33 N6          40.0460    21.6560   240.0710 n3         1 KH8      -0.730600
     34 C16         37.6240    22.3930   238.1970 ca         1 KH8      -0.129000
     35 C17         36.2820    22.3300   237.7900 ca         1 KH8      -0.071000
     36 C19         34.2670    21.0920   236.9270 cp         1 KH8      -0.025000
     37 O3          36.0270    18.7300   236.9880 oh         1 KH8      -0.526100
     38 H1          34.6000    19.9810   235.0890 ha         1 KH8       0.113500
     39 H2          38.4810    19.1210   237.7650 ha         1 KH8       0.110000
     40 H3          42.0720    21.0110   240.2700 h1         1 KH8       0.040700
     41 H4          41.8810    22.6930   239.7750 h1         1 KH8       0.040700
     42 H5          42.6610    22.5580   242.1180 hc         1 KH8       0.069700
     43 H6          41.1090    23.3650   241.9910 hc         1 KH8       0.069700
     44 H7          41.8460    19.5610   242.0010 hc         1 KH8       0.092700
     45 H8          42.8650    20.2950   243.2110 hc         1 KH8       0.092700
     46 H9          38.9150    21.7980   244.9420 h4         1 KH8       0.153000
     47 H10         44.7170    23.9670   248.8960 hc         1 KH8       0.093700
     48 H11         40.3800    20.3580   238.4200 h1         1 KH8       0.042700
     49 H12         40.3840    22.0740   238.0180 h1         1 KH8       0.042700
     50 H13         33.5520    22.2250   238.6370 ha         1 KH8       0.113500
     51 H14         31.1770    22.2280   237.9270 ha         1 KH8       0.111500
     52 H15         30.5010    21.1010   235.8080 ha         1 KH8       0.111000
     53 H16         32.2210    19.9790   234.3940 ha         1 KH8       0.111500
     54 H17         37.8370    23.0650   248.3100 hn         1 KH8       0.313500
     55 H18         37.9740    22.3720   246.7060 hn         1 KH8       0.313500
     56 H19         42.1350    23.9140   247.7790 hn         1 KH8       0.362500
     57 H20         45.3810    26.3110   246.9450 hc         1 KH8       0.080950
     58 H21         46.0360    26.0910   248.6400 hc         1 KH8       0.080950
     59 H22         43.6870    26.1700   249.5560 hc         1 KH8       0.080950
     60 H23         43.0380    26.3970   247.8600 hc         1 KH8       0.080950
     61 H24         38.9110    22.0370   242.5510 hc         1 KH8       0.069700
     62 H25         39.0150    20.3670   243.0880 hc         1 KH8       0.069700
     63 H26         38.3550    20.5290   240.7270 h1         1 KH8       0.040700
     64 H27         39.8920    19.6740   240.8610 h1         1 KH8       0.040700
     65 H29         38.0450    23.3400   238.5270 ha         1 KH8       0.131000
     66 H30         35.6840    23.2380   237.8010 ha         1 KH8       0.119000
     67 H31         36.7430    18.0670   237.0760 ho         1 KH8       0.463000
@<TRIPOS>BOND
     1     1    21 ar  
     2     1    36 ar  
     3     1    38 1   
     4     2     3 ar  
     5     2    15 ar  
     6     2    37 1   
     7     3    14 ar  
     8     3    39 1   
     9     4     5 1   
    10     4    33 1   
    11     4    40 1   
    12     4    41 1   
    13     5     8 1   
    14     5    42 1   
    15     5    43 1   
    16     6     7 1   
    17     6    22 3   
    18     7     8 1   
    19     7    44 1   
    20     7    45 1   
    21     8    23 1   
    22     8    31 1   
    23     9    10 2   
    24     9    23 1   
    25     9    46 1   
    26    10    11 1   
    27    10    12 1   
    28    11    24 1   
    29    11    25 2   
    30    12    26 1   
    31    12    30 2   
    32    13    16 1   
    33    13    28 1   
    34    13    29 1   
    35    13    47 1   
    36    14    17 1   
    37    14    34 ar  
    38    15    35 ar  
    39    15    36 1   
    40    16    26 1   
    41    16    27 2   
    42    17    33 1   
    43    17    48 1   
    44    17    49 1   
    45    18    19 ar  
    46    18    36 ar  
    47    18    50 1   
    48    19    20 ar  
    49    19    51 1   
    50    20    21 ar  
    51    20    52 1   
    52    21    53 1   
    53    23    30 1   
    54    24    54 1   
    55    24    55 1   
    56    26    56 1   
    57    28    29 1   
    58    28    57 1   
    59    28    58 1   
    60    29    59 1   
    61    29    60 1   
    62    31    32 1   
    63    31    61 1   
    64    31    62 1   
    65    32    33 1   
    66    32    63 1   
    67    32    64 1   
    68    34    35 ar  
    69    34    65 1   
    70    35    66 1   
    71    37    67 1   
@<TRIPOS>SUBSTRUCTURE
     1 KH8         1 TEMP              0 ****  ****    0 ROOT
