@<TRIPOS>MOLECULE
KH8
   67    71     1     0     0
SMALL
bcc


@<TRIPOS>ATOM
      1 C24         34.0090    20.9590   235.6310 ca         1 KH8      -0.109500
      2 C25         36.7320    20.1150   236.9640 ca         1 KH8       0.151100
      3 C26         38.0430    20.1950   237.4280 ca         1 KH8      -0.227000
      4 C27         41.3210    22.0370   240.5420 c6         1 KH8       0.169300
      5 C28         41.3580    22.5710   241.9650 c6         1 KH8      -0.088900
      6 C1          41.4520    19.4570   244.1690 c1         1 KH8       0.208700
      7 C2          41.8480    20.3930   243.1310 c3         1 KH8      -0.027300
      8 C3          40.8360    21.5490   242.9810 c6         1 KH8       0.098700
      9 C4          39.6480    22.2880   245.0840 cc         1 KH8      -0.068300
     10 C5          40.0530    22.9500   246.2270 cd         1 KH8      -0.393900
     11 C6          39.2910    23.3300   247.4180 c          1 KH8       0.733700
     12 C7          41.4310    23.1990   245.9960 cd         1 KH8       0.511200
     13 C9          44.1250    24.9120   247.9060 cx         1 KH8      -0.243700
     14 C15         38.4230    21.1630   238.3470 ca         1 KH8      -0.047300
     15 C18         35.7630    21.0120   237.4280 cp         1 KH8      -0.067000
     16 C8          43.5560    24.2060   246.7290 c          1 KH8       0.711100
     17 C14         39.8600    21.2590   238.7930 c3         1 KH8       0.218100
     18 C20         33.3290    20.9070   237.9300 ca         1 KH8      -0.109500
     19 C21         31.9970    20.8820   237.5380 ca         1 KH8      -0.132000
     20 C22         31.6670    20.8950   236.1900 ca         1 KH8      -0.125000
     21 C23         32.6790    20.9360   235.2390 ca         1 KH8      -0.132000
     22 N1          41.1330    18.7270   244.9990 n1         1 KH8      -0.365800
     23 N2          40.7130    22.1910   244.2890 na         1 KH8       0.113400
     24 N3          37.9800    23.0570   247.4170 nt         1 KH8      -0.663000
     25 O1          39.8500    23.8710   248.3750 o          1 KH8      -0.646100
     26 N4          42.2530    23.8460   246.8950 ns         1 KH8      -0.543400
     27 O2          44.1960    23.9770   245.7190 o          1 KH8      -0.569100
     28 C10         45.5920    24.7330   248.1980 cx         1 KH8      -0.098900
     29 C11         45.1100    26.0240   247.6490 cx         1 KH8      -0.098900
     30 N5          41.8150    22.7370   244.8290 nc         1 KH8      -0.541800
     31 C12         39.4730    21.0430   242.5110 c6         1 KH8      -0.088900
     32 C13         39.5240    20.5560   241.0710 c6         1 KH8       0.169300
     33 N6          39.9820    21.6090   240.1900 n3         1 KH8      -0.730600
     34 C16         37.4650    22.0560   238.8170 ca         1 KH8      -0.147000
     35 C17         36.1600    21.9690   238.3610 ca         1 KH8      -0.089000
     36 C19         34.3540    20.9460   236.9840 cp         1 KH8      -0.025000
     37 O3          36.3500    19.1640   236.0890 oh         1 KH8      -0.487100
     38 H1          34.7840    21.0080   234.8770 ha         1 KH8       0.131500
     39 H2          38.7790    19.4810   237.0700 ha         1 KH8       0.128000
     40 H3          42.0620    21.2300   240.4110 h1         1 KH8       0.040700
     41 H4          41.6250    22.8390   239.8660 h1         1 KH8       0.040700
     42 H5          42.3740    22.8750   242.2210 hc         1 KH8       0.069700
     43 H6          40.7220    23.4570   242.0210 hc         1 KH8       0.069700
     44 H7          41.9500    19.8440   242.1940 hc         1 KH8       0.092700
     45 H8          42.8340    20.7860   243.3820 hc         1 KH8       0.092700
     46 H9          38.6850    21.8910   244.8100 h4         1 KH8       0.171000
     47 H10         43.4710    25.0310   248.7620 hc         1 KH8       0.093700
     48 H11         40.3830    20.3210   238.5430 h1         1 KH8       0.042700
     49 H12         40.3520    22.0430   238.2080 h1         1 KH8       0.042700
     50 H13         33.5750    20.8860   238.9850 ha         1 KH8       0.131500
     51 H14         31.2190    20.8480   238.2890 ha         1 KH8       0.129500
     52 H15         30.6290    20.8740   235.8830 ha         1 KH8       0.129000
     53 H16         32.4330    20.9540   234.1850 ha         1 KH8       0.129500
     54 H17         37.4090    23.3440   248.1960 hn         1 KH8       0.313500
     55 H18         37.4990    22.6950   246.6120 hn         1 KH8       0.313500
     56 H19         41.7810    24.0960   247.7560 hn         1 KH8       0.362500
     57 H20         46.1500    24.0770   247.5430 hc         1 KH8       0.080950
     58 H21         45.8760    24.6850   249.2400 hc         1 KH8       0.080950
     59 H22         45.0560    26.8810   248.3080 hc         1 KH8       0.080950
     60 H23         45.3350    26.2570   246.6170 hc         1 KH8       0.080950
     61 H24         38.7490    21.8600   242.5650 hc         1 KH8       0.069700
     62 H25         39.1040    20.2370   243.1500 hc         1 KH8       0.069700
     63 H26         38.5170    20.2530   240.7810 h1         1 KH8       0.040700
     64 H27         40.1540    19.6520   240.9910 h1         1 KH8       0.040700
     65 H29         37.7390    22.8110   239.5430 ha         1 KH8       0.149000
     66 H30         35.4230    22.6720   238.7290 ha         1 KH8       0.137000
     67 H31         37.1000    18.6060   235.8540 ho         1 KH8       0.424000
@<TRIPOS>BOND
     1     1    21 ar  
     2     1    36 ar  
     3     1    38 1   
     4     2     3 ar  
     5     2    15 ar  
     6     2    37 1   
     7     3    14 ar  
     8     3    39 1   
     9     4     5 1   
    10     4    33 1   
    11     4    40 1   
    12     4    41 1   
    13     5     8 1   
    14     5    42 1   
    15     5    43 1   
    16     6     7 1   
    17     6    22 3   
    18     7     8 1   
    19     7    44 1   
    20     7    45 1   
    21     8    23 1   
    22     8    31 1   
    23     9    10 2   
    24     9    23 1   
    25     9    46 1   
    26    10    11 1   
    27    10    12 1   
    28    11    24 1   
    29    11    25 2   
    30    12    26 1   
    31    12    30 2   
    32    13    16 1   
    33    13    28 1   
    34    13    29 1   
    35    13    47 1   
    36    14    17 1   
    37    14    34 ar  
    38    15    35 ar  
    39    15    36 1   
    40    16    26 1   
    41    16    27 2   
    42    17    33 1   
    43    17    48 1   
    44    17    49 1   
    45    18    19 ar  
    46    18    36 ar  
    47    18    50 1   
    48    19    20 ar  
    49    19    51 1   
    50    20    21 ar  
    51    20    52 1   
    52    21    53 1   
    53    23    30 1   
    54    24    54 1   
    55    24    55 1   
    56    26    56 1   
    57    28    29 1   
    58    28    57 1   
    59    28    58 1   
    60    29    59 1   
    61    29    60 1   
    62    31    32 1   
    63    31    61 1   
    64    31    62 1   
    65    32    33 1   
    66    32    63 1   
    67    32    64 1   
    68    34    35 ar  
    69    34    65 1   
    70    35    66 1   
    71    37    67 1   
@<TRIPOS>SUBSTRUCTURE
     1 KH8         1 TEMP              0 ****  ****    0 ROOT
