@<TRIPOS>MOLECULE
KH9
   89    94     1     0     0
SMALL
abcg2


@<TRIPOS>ATOM
      1 N1          14.8770     5.8830    11.0530 ns         1 KH9      -0.522900
      2 C7          18.7200     8.9250    15.2110 c5         1 KH9       0.075300
      3 C8          18.1200     7.5820    15.6480 c5         1 KH9       0.108300
      4 N2          15.5970     7.1510    12.8220 ns         1 KH9      -0.511900
      5 C9          18.6610    10.5450    12.3990 cc         1 KH9       0.520700
      6 O1          18.3260     7.6850    13.2880 os         1 KH9      -0.424000
      7 C1          13.2800     4.5850     9.6680 c3         1 KH9      -0.095400
      8 O5          16.9400    11.5180     7.9800 oh         1 KH9      -0.680000
      9 C5          17.5750     7.0450    14.3260 c5         1 KH9       0.145300
     10 C6          19.2780     8.5390    13.8460 c5         1 KH9       0.318300
     11 N3          19.5390     9.6300    12.9430 na         1 KH9      -0.259300
     12 C4          16.0860     7.3330    14.1610 c3         1 KH9       0.124000
     13 O4          15.9700     9.2190    10.1170 os         1 KH9      -0.425000
     14 C3          15.4210     5.9120    12.2960 c          1 KH9       0.661100
     15 O3          19.1160     6.7120    16.1220 oh         1 KH9      -0.707000
     16 C2          14.6540     4.6580    10.3220 c3         1 KH9       0.124000
     17 N4          19.2330    11.3320    11.5230 nd         1 KH9      -0.558100
     18 N           13.1160     6.9290     8.9050 n8         1 KH9      -1.006200
     19 C           13.0760     5.5300     8.4930 c3         1 KH9       0.148800
     20 O           15.7360     4.8930    12.9120 o          1 KH9      -0.698100
     21 C10         20.5300    10.9180    11.4750 ca         1 KH9      -0.081600
     22 C11         21.6350    11.3310    10.7060 ca         1 KH9       0.445900
     23 C12         22.8520     9.6860    11.7550 ca         1 KH9       0.167900
     24 C13         20.7420     9.8570    12.3410 ca         1 KH9       0.142500
     25 C15         16.0950    10.6990    12.8680 c1         1 KH9      -0.038100
     26 C16         14.6370    10.7420    12.9740 c3         1 KH9       0.252900
     27 C17         13.8070    10.0180    10.7930 c3         1 KH9       0.186800
     28 C18         15.0730    10.3080    10.0220 c5         1 KH9       0.119300
     29 C19         16.9320     9.3520     9.1020 c5         1 KH9       0.263300
     30 C20         16.3190    10.2630     8.0040 c5         1 KH9       0.130300
     31 C21         14.8830    10.4400     8.5060 c5         1 KH9       0.144300
     32 C22         16.5860     7.1540     7.9190 cc         1 KH9       0.417700
     33 C23         18.3030     6.0920     8.5400 ca         1 KH9      -0.100600
     34 C24         19.3400     5.1860     8.8310 ca         1 KH9       0.448900
     35 C25         20.3180     6.8560    10.0770 ca         1 KH9       0.184900
     36 C26         18.4210     7.3550     9.0940 ca         1 KH9       0.146500
     37 C27         12.8630     9.0670    12.8070 c3         1 KH9       0.021800
     38 C28         11.5870     9.9200    12.9890 c          1 KH9       0.694000
     39 N10         17.1480     5.9880     7.8050 nd         1 KH9      -0.570100
     40 N11         19.3620     3.9380     8.3630 nv         1 KH9      -1.073900
     41 N12         20.3400     5.6100     9.6140 nb         1 KH9      -0.305000
     42 N13         19.4090     7.7930     9.8690 nb         1 KH9      -0.203000
     43 N5          21.5650    12.3240     9.8200 nv         1 KH9      -1.074900
     44 N6          22.7930    10.6850    10.8790 nb         1 KH9      -0.313000
     45 N7          21.8870     9.2050    12.5210 nb         1 KH9      -0.216000
     46 N8          14.0260     9.6800    12.1880 n3         1 KH9      -0.741600
     47 N9          17.3130     8.0360     8.6720 na         1 KH9      -0.283300
     48 O2          19.7440     9.4070    16.0300 oh         1 KH9      -0.703000
     49 O6          14.3290    11.6420     8.0690 oh         1 KH9      -0.687000
     50 O7          11.6750    11.1490    12.8050 o          1 KH9      -0.729000
     51 O8          10.5770     9.2780    13.3360 o          1 KH9      -0.729000
     52 H1          14.6560     6.7380    10.5600 hn         1 KH9       0.341500
     53 H2          17.9120     9.6550    15.0900 h1         1 KH9       0.069700
     54 H3          17.3200     7.7170    16.3880 h1         1 KH9       0.051700
     55 H4          15.2070     7.9740    12.3660 hn         1 KH9       0.367500
     56 H5          12.5030     4.7520    10.4210 hc         1 KH9       0.045200
     57 H6          13.1390     3.5640     9.3020 hc         1 KH9       0.045200
     58 H8          17.7410     5.9670    14.2600 h1         1 KH9       0.108700
     59 H9          20.2470     8.0430    13.9770 h2         1 KH9       0.105700
     60 H10         15.8780     8.3670    14.4420 h1         1 KH9       0.043700
     61 H11         15.5480     6.7060    14.8790 h1         1 KH9       0.043700
     62 H12         19.6560     7.1960    16.7580 ho         1 KH9       0.511000
     63 H13         14.7640     3.8280    11.0170 h1         1 KH9       0.047200
     64 H14         15.4230     4.5240     9.5510 h1         1 KH9       0.047200
     65 H15         12.9920     7.5250     8.0960 hn         1 KH9       0.395000
     66 H16         12.3260     7.1210     9.5090 hn         1 KH9       0.395000
     67 H18         12.1390     5.2630     7.9880 h1         1 KH9       0.022700
     68 H19         13.8760     5.3670     7.7650 h1         1 KH9       0.022700
     69 H20         23.8190     9.2040    11.8470 h5         1 KH9       0.037100
     70 H21         14.2840    11.7410    12.6910 h1         1 KH9       0.073700
     71 H22         14.3640    10.6140    14.0240 h1         1 KH9       0.073700
     72 H23         13.1450    10.8870    10.6790 h1         1 KH9       0.054200
     73 H24         13.3060     9.1660    10.3260 h1         1 KH9       0.054200
     74 H25         15.5470    11.2290    10.3910 h1         1 KH9       0.075700
     75 H26         17.8420     9.8250     9.4870 h2         1 KH9       0.107700
     76 H27         16.3540     9.7840     7.0180 h1         1 KH9       0.046700
     77 H28         14.3000     9.5730     8.1630 h1         1 KH9       0.035700
     78 H29         15.6430     7.4310     7.4710 h5         1 KH9       0.062800
     79 H30         21.1540     7.1350    10.7100 h5         1 KH9       0.051100
     80 H31         12.6120     8.1730    12.2260 h1         1 KH9       0.040700
     81 H32         13.1630     8.6940    13.7930 h1         1 KH9       0.040700
     82 H33         20.1160     3.3180     8.6050 hn         1 KH9       0.501000
     83 H34         18.6210     3.5860     7.7840 hn         1 KH9       0.501000
     84 H35         22.3750    12.5840     9.2830 hn         1 KH9       0.502000
     85 H36         20.7070    12.8220     9.6620 hn         1 KH9       0.502000
     86 H38         19.3600     9.9390    16.7330 ho         1 KH9       0.508000
     87 H39         13.3760    11.5980     8.1900 ho         1 KH9       0.510000
     88 C14         17.2870    10.6090    12.7200 cg         1 KH9      -0.197200
     89 H7          17.8340    11.4120     7.6380 ho         1 KH9       0.500000
@<TRIPOS>BOND
     1     1    14 1   
     2     1    16 1   
     3     1    52 1   
     4     2     3 1   
     5     2    10 1   
     6     2    48 1   
     7     2    53 1   
     8     3     9 1   
     9     3    15 1   
    10     3    54 1   
    11     4    12 1   
    12     4    14 1   
    13     4    55 1   
    14     5    11 1   
    15     5    17 2   
    16     5    88 1   
    17     6     9 1   
    18     6    10 1   
    19     7    16 1   
    20     7    19 1   
    21     7    56 1   
    22     7    57 1   
    23     8    30 1   
    24     8    89 1   
    25     9    12 1   
    26     9    58 1   
    27    10    11 1   
    28    10    59 1   
    29    11    24 1   
    30    12    60 1   
    31    12    61 1   
    32    13    28 1   
    33    13    29 1   
    34    14    20 2   
    35    15    62 1   
    36    16    63 1   
    37    16    64 1   
    38    17    21 1   
    39    18    19 1   
    40    18    65 1   
    41    18    66 1   
    42    19    67 1   
    43    19    68 1   
    44    21    22 ar  
    45    21    24 ar  
    46    22    43 1   
    47    22    44 ar  
    48    23    44 ar  
    49    23    45 ar  
    50    23    69 1   
    51    24    45 ar  
    52    25    26 1   
    53    25    88 3   
    54    26    46 1   
    55    26    70 1   
    56    26    71 1   
    57    27    28 1   
    58    27    46 1   
    59    27    72 1   
    60    27    73 1   
    61    28    31 1   
    62    28    74 1   
    63    29    30 1   
    64    29    47 1   
    65    29    75 1   
    66    30    31 1   
    67    30    76 1   
    68    31    49 1   
    69    31    77 1   
    70    32    39 2   
    71    32    47 1   
    72    32    78 1   
    73    33    34 ar  
    74    33    36 ar  
    75    33    39 1   
    76    34    40 1   
    77    34    41 ar  
    78    35    41 ar  
    79    35    42 ar  
    80    35    79 1   
    81    36    42 ar  
    82    36    47 1   
    83    37    38 1   
    84    37    46 1   
    85    37    80 1   
    86    37    81 1   
    87    38    50 1   
    88    38    51 1   
    89    40    82 1   
    90    40    83 1   
    91    43    84 1   
    92    43    85 1   
    93    48    86 1   
    94    49    87 1   
@<TRIPOS>SUBSTRUCTURE
     1 KH9         1 TEMP              0 ****  ****    0 ROOT
