@<TRIPOS>MOLECULE
KH9
   89    94     1     0     0
SMALL
No Charge or Current Charge


@<TRIPOS>ATOM
      1 N1          15.3280     6.4230    10.7780 ns         1 KH9      -0.522900
      2 C7          18.5540     8.9920    15.3550 c5         1 KH9       0.075300
      3 C8          18.0260     7.6270    15.8880 c5         1 KH9       0.108300
      4 N2          15.6050     7.3220    12.8360 ns         1 KH9      -0.511900
      5 C9          18.7670    10.4280    12.4220 cc         1 KH9       0.520700
      6 O1          18.3690     7.4730    13.5080 os         1 KH9      -0.424000
      7 C1          13.9920     4.5570     9.7390 c3         1 KH9      -0.095400
      8 O5          16.7510    11.6950     7.8660 oh         1 KH9      -0.680000
      9 C5          17.4780     7.0030    14.5580 c5         1 KH9       0.145300
     10 C6          19.2420     8.4880    14.0420 c5         1 KH9       0.318300
     11 N3          19.5900     9.4470    12.9910 na         1 KH9      -0.259300
     12 C4          16.0100     7.4190    14.2410 c3         1 KH9       0.124000
     13 O4          15.9560     9.1670     9.9040 os         1 KH9      -0.425000
     14 C3          15.6560     6.1920    12.0810 c          1 KH9       0.661100
     15 O3          19.0960     6.8690    16.4680 oh         1 KH9      -0.707000
     16 C2          15.2890     5.3990     9.7350 c3         1 KH9       0.124000
     17 N4          19.4190    11.1680    11.5090 nd         1 KH9      -0.558100
     18 N           12.3140     6.4210     9.5140 n8         1 KH9      -1.006200
     19 C           12.8190     5.1650     8.9370 c3         1 KH9       0.148800
     20 O           15.9540     5.0940    12.5230 o          1 KH9      -0.698100
     21 C10         20.7020    10.6160    11.5160 ca         1 KH9      -0.081600
     22 C11         21.8340    10.9670    10.7510 ca         1 KH9       0.445900
     23 C12         23.0000     9.2880    11.7790 ca         1 KH9       0.167900
     24 C13         20.8170     9.5730    12.4020 ca         1 KH9       0.142500
     25 C15         16.1750    10.7140    12.7990 c1         1 KH9      -0.038100
     26 C16         14.7110    10.7710    12.9180 c3         1 KH9       0.252900
     27 C17         13.7670     9.9600    10.7230 c3         1 KH9       0.186800
     28 C18         15.0130    10.2510     9.8420 c5         1 KH9       0.119300
     29 C19         16.9390     9.3990     8.8700 c5         1 KH9       0.263300
     30 C20         16.2460    10.3540     7.8150 c5         1 KH9       0.130300
     31 C21         14.7640    10.3510     8.3130 c5         1 KH9       0.144300
     32 C22         17.1060     7.4380     7.2300 cc         1 KH9       0.417700
     33 C23         18.5080     6.2040     8.2980 ca         1 KH9      -0.100600
     34 C24         19.3830     5.1970     8.7590 ca         1 KH9       0.448900
     35 C25         19.7740     6.4480    10.6350 ca         1 KH9       0.184900
     36 C26         18.3290     7.3110     9.0870 ca         1 KH9       0.146500
     37 C27         12.7680     9.2170    12.8740 c3         1 KH9       0.021800
     38 C28         11.5840    10.2350    13.0470 c          1 KH9       0.694000
     39 N10         17.7520     6.2600     7.1230 nd         1 KH9      -0.570100
     40 N11         19.6270     4.0600     8.0550 nv         1 KH9      -1.073900
     41 N12         20.0200     5.3130     9.9350 nb         1 KH9      -0.305000
     42 N13         18.9580     7.4640    10.2680 nb         1 KH9      -0.203000
     43 N5          21.8240    11.9780     9.8420 nv         1 KH9      -1.074900
     44 N6          22.9910    10.3000    10.8780 nb         1 KH9      -0.313000
     45 N7          21.9660     8.8850    12.5550 nb         1 KH9      -0.216000
     46 N8          14.0190     9.6750    12.1740 n3         1 KH9      -0.741600
     47 N9          17.4420     8.1020     8.4170 na         1 KH9      -0.283300
     48 O2          19.4570     9.6140    16.2930 oh         1 KH9      -0.703000
     49 O6          14.0750    11.5470     7.9060 oh         1 KH9      -0.687000
     50 O7          11.5960    10.9830    14.0170 o          1 KH9      -0.729000
     51 O8          10.6940    10.2460    12.2070 o          1 KH9      -0.729000
     52 H1          15.1600     7.3870    10.5140 hn         1 KH9       0.341500
     53 H2          17.7170     9.6650    15.1280 h1         1 KH9       0.069700
     54 H3          17.2220     7.7700    16.6240 h1         1 KH9       0.051700
     55 H4          15.2510     8.1650    12.3840 hn         1 KH9       0.367500
     56 H5          13.6800     4.3430    10.7680 hc         1 KH9       0.045200
     57 H6          14.2250     3.5880     9.2830 hc         1 KH9       0.045200
     58 H8          17.5190     5.9060    14.5890 h1         1 KH9       0.108700
     59 H9          20.1890     8.0090    14.3230 h2         1 KH9       0.105700
     60 H10         15.8540     8.4570    14.5580 h1         1 KH9       0.043700
     61 H11         15.3330     6.7970    14.8400 h1         1 KH9       0.043700
     62 H12         19.7000     7.5520    16.8500 ho         1 KH9       0.511000
     63 H13         16.1500     4.7320     9.8820 h1         1 KH9       0.047200
     64 H14         15.4100     5.8800     8.7570 h1         1 KH9       0.047200
     65 H15         11.4550     6.6940     9.0230 hn         1 KH9       0.395000
     66 H16         12.0000     6.2440    10.4740 hn         1 KH9       0.395000
     67 H18         11.9910     4.4430     8.9170 h1         1 KH9       0.022700
     68 H19         13.1330     5.3540     7.9020 h1         1 KH9       0.022700
     69 H20         23.9350     8.7410    11.8900 h5         1 KH9       0.037100
     70 H21         14.3590    11.7580    12.5850 h1         1 KH9       0.073700
     71 H22         14.4860    10.7030    13.9910 h1         1 KH9       0.073700
     72 H23         13.0870    10.8170    10.6290 h1         1 KH9       0.054200
     73 H24         13.2500     9.1020    10.2740 h1         1 KH9       0.054200
     74 H25         15.4960    11.1670    10.2090 h1         1 KH9       0.075700
     75 H26         17.8040     9.9180     9.3020 h2         1 KH9       0.107700
     76 H27         16.3170     9.9710     6.7890 h1         1 KH9       0.046700
     77 H28         14.2380     9.4570     7.9480 h1         1 KH9       0.035700
     78 H29         16.4010     7.8380     6.5120 h5         1 KH9       0.062800
     79 H30         20.2860     6.5550    11.5890 h5         1 KH9       0.051100
     80 H31         12.3600     8.3430    12.3500 h1         1 KH9       0.040700
     81 H32         13.0270     8.8650    13.8810 h1         1 KH9       0.040700
     82 H33         20.0160     3.2640     8.5530 hn         1 KH9       0.501000
     83 H34         19.0040     3.8560     7.2770 hn         1 KH9       0.501000
     84 H35         22.5530    11.9890     9.1340 hn         1 KH9       0.502000
     85 H36         20.9160    12.3470     9.5720 hn         1 KH9       0.502000
     86 H38         18.9490    10.2960    16.7940 ho         1 KH9       0.508000
     87 H39         13.1150    11.3270     7.8410 ho         1 KH9       0.510000
     88 C14         17.3760    10.6040    12.6530 cg         1 KH9      -0.197200
     89 H7          15.9300    12.2430     7.8020 ho         1 KH9       0.500000
@<TRIPOS>BOND
     1     1    14 1   
     2     1    16 1   
     3     1    52 1   
     4     2     3 1   
     5     2    10 1   
     6     2    48 1   
     7     2    53 1   
     8     3     9 1   
     9     3    15 1   
    10     3    54 1   
    11     4    12 1   
    12     4    14 1   
    13     4    55 1   
    14     5    11 1   
    15     5    17 2   
    16     5    88 1   
    17     6     9 1   
    18     6    10 1   
    19     7    16 1   
    20     7    19 1   
    21     7    56 1   
    22     7    57 1   
    23     8    30 1   
    24     8    89 1   
    25     9    12 1   
    26     9    58 1   
    27    10    11 1   
    28    10    59 1   
    29    11    24 1   
    30    12    60 1   
    31    12    61 1   
    32    13    28 1   
    33    13    29 1   
    34    14    20 2   
    35    15    62 1   
    36    16    63 1   
    37    16    64 1   
    38    17    21 1   
    39    18    19 1   
    40    18    65 1   
    41    18    66 1   
    42    19    67 1   
    43    19    68 1   
    44    21    22 ar  
    45    21    24 ar  
    46    22    43 1   
    47    22    44 ar  
    48    23    44 ar  
    49    23    45 ar  
    50    23    69 1   
    51    24    45 ar  
    52    25    26 1   
    53    25    88 3   
    54    26    46 1   
    55    26    70 1   
    56    26    71 1   
    57    27    28 1   
    58    27    46 1   
    59    27    72 1   
    60    27    73 1   
    61    28    31 1   
    62    28    74 1   
    63    29    30 1   
    64    29    47 1   
    65    29    75 1   
    66    30    31 1   
    67    30    76 1   
    68    31    49 1   
    69    31    77 1   
    70    32    39 2   
    71    32    47 1   
    72    32    78 1   
    73    33    34 ar  
    74    33    36 ar  
    75    33    39 1   
    76    34    40 1   
    77    34    41 ar  
    78    35    41 ar  
    79    35    42 ar  
    80    35    79 1   
    81    36    42 ar  
    82    36    47 1   
    83    37    38 1   
    84    37    46 1   
    85    37    80 1   
    86    37    81 1   
    87    38    50 1   
    88    38    51 1   
    89    40    82 1   
    90    40    83 1   
    91    43    84 1   
    92    43    85 1   
    93    48    86 1   
    94    49    87 1   
@<TRIPOS>SUBSTRUCTURE
     1 KH9         1 TEMP              0 ****  ****    0 ROOT
