@<TRIPOS>MOLECULE
KHA
   45    46     1     0     0
SMALL
abcg2


@<TRIPOS>ATOM
      1 O1          -3.8380     2.2350     0.1720 o          1 KHA      -0.577100
      2 C8          -3.3000     1.1450     0.0350 c          1 KHA       0.601700
      3 N1          -3.9560    -0.0220     0.1200 ns         1 KHA      -0.491900
      4 C9          -5.3750    -0.1260     0.3780 c3         1 KHA       0.096000
      5 C10         -5.9500    -1.3540    -0.2920 c3         1 KHA       0.141600
      6 O2          -5.3000    -2.4940     0.2270 oh         1 KHA      -0.675000
      7 C6          -1.8330     1.0420    -0.2440 ca         1 KHA      -0.100600
      8 C3          -0.9980     2.0550     0.2180 ca         1 KHA      -0.067000
      9 C1           0.3640     2.0060    -0.0260 ca         1 KHA      -0.094500
     10 C2          -1.2860     0.0010    -0.9910 ca         1 KHA      -0.067000
     11 C5           0.0740    -0.0350    -1.2500 ca         1 KHA      -0.094500
     12 C4           0.9180     0.9540    -0.7510 ca         1 KHA      -0.155300
     13 C7           2.3870     0.9240    -1.0460 c3         1 KHA       0.159900
     14 N2           3.2250     0.1640    -0.0390 n4         1 KHA      -0.505000
     15 C11          3.0890     0.7910     1.3020 c3         1 KHA       0.075900
     16 C16          4.6550     0.2510    -0.5140 c6         1 KHA       0.102600
     17 C15          2.8000    -1.2790     0.0020 c6         1 KHA       0.102600
     18 C13          3.7260    -2.1440     0.8350 c6         1 KHA      -0.100900
     19 C14          5.1660    -2.0460     0.3550 c6         1 KHA      -0.086400
     20 C12          5.6120    -0.5920     0.3030 c6         1 KHA      -0.100900
     21 H1          -3.4280    -0.8790     0.1660 hn         1 KHA       0.323500
     22 H9C1        -5.5700    -0.1590     1.4550 h1         1 KHA       0.070700
     23 H9C2        -5.8770     0.7570    -0.0140 h1         1 KHA       0.070700
     24 H101        -7.0300    -1.3770    -0.1010 h1         1 KHA       0.038700
     25 H102        -5.8130    -1.2700    -1.3770 h1         1 KHA       0.038700
     26 H2          -5.4850    -3.2400    -0.3500 ho         1 KHA       0.453000
     27 H3          -1.4120     2.8850     0.7740 ha         1 KHA       0.147500
     28 HB           0.9970     2.8050     0.3420 ha         1 KHA       0.119000
     29 HA          -1.9150    -0.7750    -1.4080 ha         1 KHA       0.147500
     30 H5           0.4760    -0.8380    -1.8550 ha         1 KHA       0.119000
     31 H7C1         2.7940     1.9340    -1.0730 hx         1 KHA       0.093200
     32 H7C2         2.5780     0.4600    -2.0130 hx         1 KHA       0.093200
     33 H111         3.3620     1.8410     1.2300 hx         1 KHA       0.093367
     34 H112         2.0620     0.6960     1.6430 hx         1 KHA       0.093367
     35 H113         3.7390     0.3000     2.0160 hx         1 KHA       0.093367
     36 H161         4.6510    -0.0870    -1.5520 hx         1 KHA       0.091700
     37 H162         4.9310     1.3050    -0.5020 hx         1 KHA       0.091700
     38 H151         1.7830    -1.3090     0.3850 hx         1 KHA       0.091700
     39 H152         2.7890    -1.6230    -1.0340 hx         1 KHA       0.091700
     40 H131         3.3580    -3.1670     0.7440 hc         1 KHA       0.080950
     41 H132         3.6480    -1.8890     1.8930 hc         1 KHA       0.080950
     42 H141         5.2470    -2.4860    -0.6440 hc         1 KHA       0.075200
     43 H142         5.8230    -2.6200     1.0090 hc         1 KHA       0.075200
     44 H121         6.5880    -0.5060    -0.1780 hc         1 KHA       0.080950
     45 H122         5.7370    -0.1840     1.3080 hc         1 KHA       0.080950
@<TRIPOS>BOND
     1     1     2 2   
     2     2     3 1   
     3     2     7 1   
     4     3     4 1   
     5     3    21 1   
     6     4     5 1   
     7     4    22 1   
     8     4    23 1   
     9     5     6 1   
    10     5    24 1   
    11     5    25 1   
    12     6    26 1   
    13     7     8 ar  
    14     7    10 ar  
    15     8     9 ar  
    16     8    27 1   
    17     9    12 ar  
    18     9    28 1   
    19    10    11 ar  
    20    10    29 1   
    21    11    12 ar  
    22    11    30 1   
    23    12    13 1   
    24    13    14 1   
    25    13    31 1   
    26    13    32 1   
    27    14    15 1   
    28    14    16 1   
    29    14    17 1   
    30    15    33 1   
    31    15    34 1   
    32    15    35 1   
    33    16    20 1   
    34    16    36 1   
    35    16    37 1   
    36    17    18 1   
    37    17    38 1   
    38    17    39 1   
    39    18    19 1   
    40    18    40 1   
    41    18    41 1   
    42    19    20 1   
    43    19    42 1   
    44    19    43 1   
    45    20    44 1   
    46    20    45 1   
@<TRIPOS>SUBSTRUCTURE
     1 KHA         1 TEMP              0 ****  ****    0 ROOT
