@<TRIPOS>MOLECULE
KHA
   45    46     1     0     0
SMALL
No Charge or Current Charge


@<TRIPOS>ATOM
      1 O1          -3.7720     1.9430     1.0090 o          1 KHA      -0.577100
      2 C8          -3.3080     0.9680     0.4310 c          1 KHA       0.601700
      3 N1          -4.0960    -0.1230     0.1360 ns         1 KHA      -0.491900
      4 C9          -5.5270    -0.2410     0.4470 c3         1 KHA       0.096000
      5 C10         -6.2760    -1.1250    -0.5780 c3         1 KHA       0.141600
      6 O2          -5.6090    -2.3900    -0.7390 oh         1 KHA      -0.675000
      7 C6          -1.8520     0.8980     0.0100 ca         1 KHA      -0.100600
      8 C3          -0.9960     1.9870     0.2910 ca         1 KHA      -0.067000
      9 C1           0.3580     1.9560    -0.0840 ca         1 KHA      -0.094500
     10 C2          -1.3120    -0.2260    -0.6640 ca         1 KHA      -0.067000
     11 C5           0.0440    -0.2520    -1.0370 ca         1 KHA      -0.094500
     12 C4           0.8860     0.8330    -0.7430 ca         1 KHA      -0.155300
     13 C7           2.3540     0.7990    -1.1460 c3         1 KHA       0.159900
     14 N2           3.3110     0.1970    -0.1060 n4         1 KHA      -0.505000
     15 C11          3.2590     1.0480     1.1740 c3         1 KHA       0.075900
     16 C16          4.7490     0.2070    -0.6940 c6         1 KHA       0.102600
     17 C15          2.9080    -1.2730     0.1940 c6         1 KHA       0.102600
     18 C13          3.9240    -2.0260     1.0840 c6         1 KHA      -0.100900
     19 C14          5.3380    -1.9870     0.4600 c6         1 KHA      -0.086400
     20 C12          5.7850    -0.5320     0.1850 c6         1 KHA      -0.100900
     21 H1          -3.6590    -0.9020    -0.3390 hn         1 KHA       0.323500
     22 H9C1        -5.6350    -0.6760     1.4490 h1         1 KHA       0.070700
     23 H9C2        -5.9890     0.7550     0.4590 h1         1 KHA       0.070700
     24 H101        -7.3090    -1.2720    -0.2350 h1         1 KHA       0.038700
     25 H102        -6.3160    -0.5940    -1.5390 h1         1 KHA       0.038700
     26 H2          -6.1440    -2.9190    -1.3750 ho         1 KHA       0.453000
     27 H3          -1.3790     2.8670     0.8040 ha         1 KHA       0.147500
     28 HB           0.9960     2.8080     0.1430 ha         1 KHA       0.119000
     29 HA          -1.9250    -1.0880    -0.9090 ha         1 KHA       0.147500
     30 H5           0.4380    -1.1230    -1.5560 ha         1 KHA       0.119000
     31 H7C1         2.7000     1.8130    -1.3590 hx         1 KHA       0.093200
     32 H7C2         2.4650     0.2180    -2.0640 hx         1 KHA       0.093200
     33 H111         3.5370     2.0760     0.9350 hx         1 KHA       0.093367
     34 H112         2.2440     1.0240     1.5760 hx         1 KHA       0.093367
     35 H113         3.9530     0.6400     1.9110 hx         1 KHA       0.093367
     36 H161         4.6840    -0.2670    -1.6780 hx         1 KHA       0.091700
     37 H162         5.0300     1.2540    -0.8440 hx         1 KHA       0.091700
     38 H151         1.9180    -1.2450     0.6580 hx         1 KHA       0.091700
     39 H152         2.8110    -1.7710    -0.7750 hx         1 KHA       0.091700
     40 H131         3.5980    -3.0670     1.2120 hc         1 KHA       0.080950
     41 H132         3.9420    -1.5810     2.0880 hc         1 KHA       0.080950
     42 H141         5.3430    -2.5580    -0.4800 hc         1 KHA       0.075200
     43 H142         6.0580    -2.4810     1.1280 hc         1 KHA       0.075200
     44 H121         6.7620    -0.5280    -0.3170 hc         1 KHA       0.080950
     45 H122         5.9230     0.0060     1.1330 hc         1 KHA       0.080950
@<TRIPOS>BOND
     1     1     2 2   
     2     2     3 1   
     3     2     7 1   
     4     3     4 1   
     5     3    21 1   
     6     4     5 1   
     7     4    22 1   
     8     4    23 1   
     9     5     6 1   
    10     5    24 1   
    11     5    25 1   
    12     6    26 1   
    13     7     8 ar  
    14     7    10 ar  
    15     8     9 ar  
    16     8    27 1   
    17     9    12 ar  
    18     9    28 1   
    19    10    11 ar  
    20    10    29 1   
    21    11    12 ar  
    22    11    30 1   
    23    12    13 1   
    24    13    14 1   
    25    13    31 1   
    26    13    32 1   
    27    14    15 1   
    28    14    16 1   
    29    14    17 1   
    30    15    33 1   
    31    15    34 1   
    32    15    35 1   
    33    16    20 1   
    34    16    36 1   
    35    16    37 1   
    36    17    18 1   
    37    17    38 1   
    38    17    39 1   
    39    18    19 1   
    40    18    40 1   
    41    18    41 1   
    42    19    20 1   
    43    19    42 1   
    44    19    43 1   
    45    20    44 1   
    46    20    45 1   
@<TRIPOS>SUBSTRUCTURE
     1 KHA         1 TEMP              0 ****  ****    0 ROOT
