@<TRIPOS>MOLECULE
KHB
   35    34     1     0     0
SMALL
No Charge or Current Charge


@<TRIPOS>ATOM
      1 N          -12.4520    11.3880    -6.7060 n8         1 KHB      -1.002200
      2 CA         -11.0780    11.2360    -6.1020 c3         1 KHB       0.015500
      3 C          -10.0190    12.3440    -6.5100 c          1 KHB       0.687000
      4 O           -9.8200    12.5500    -7.7000 o          1 KHB      -0.735000
      5 CB         -10.5410     9.8030    -6.3720 c3         1 KHB      -0.045400
      6 CG          -9.2190     9.4750    -5.6370 c3         1 KHB      -0.071400
      7 CD          -8.7390     8.0260    -5.8740 c3         1 KHB      -0.094400
      8 CE          -7.4230     7.7030    -5.1410 c3         1 KHB       0.093000
      9 C1          -5.8710     5.7510    -4.8400 c          1 KHB       0.600100
     10 C2          -5.6110     4.3060    -5.2570 c3         1 KHB      -0.203400
     11 C3          -5.8820     3.3330    -4.0950 c3         1 KHB       0.192300
     12 C4          -5.4520     1.8900    -4.4270 c3         1 KHB      -0.092100
     13 NZ          -6.9950     6.3260    -5.3860 ns         1 KHB      -0.494900
     14 O2          -7.2800     3.3420    -3.8010 oh         1 KHB      -0.670000
     15 O1          -5.1090     6.3730    -4.1120 o          1 KHB      -0.634100
     16 OXT         -9.5360    13.0370    -5.6250 o          1 KHB      -0.735000
     17 H          -12.8210    12.3170    -6.4640 hn         1 KHB       0.381500
     18 HN2        -12.3500    11.4390    -7.7270 hn         1 KHB       0.381500
     19 HA         -11.2110    11.3250    -5.0150 h1         1 KHB       0.038700
     20 HB2        -11.3000     9.0730    -6.0630 hc         1 KHB       0.023200
     21 HB3        -10.3920     9.6680    -7.4500 hc         1 KHB       0.023200
     22 HG2         -8.4340    10.1670    -5.9660 hc         1 KHB       0.054200
     23 HG3         -9.3570     9.6370    -4.5600 hc         1 KHB       0.054200
     24 HD2         -9.5170     7.3290    -5.5400 hc         1 KHB       0.032200
     25 HD3         -8.5990     7.8640    -6.9510 hc         1 KHB       0.032200
     26 HE2         -6.6320     8.3850    -5.4820 h1         1 KHB       0.058200
     27 HE3         -7.5580     7.8450    -4.0600 h1         1 KHB       0.058200
     28 H22         -6.2490     4.0300    -6.1050 hc         1 KHB       0.061200
     29 H23         -4.5570     4.2160    -5.5420 hc         1 KHB       0.061200
     30 H32         -5.3090     3.6660    -3.2180 h1         1 KHB       0.040700
     31 H41         -5.6450     1.2220    -3.5790 hc         1 KHB       0.038367
     32 H42         -5.9970     1.5090    -5.2990 hc         1 KHB       0.038367
     33 H43         -4.3790     1.8510    -4.6500 hc         1 KHB       0.038367
     34 H19         -7.5710     5.7330    -5.9700 hn         1 KHB       0.305500
     35 HO2         -7.4160     2.7430    -3.0340 ho         1 KHB       0.466000
@<TRIPOS>BOND
     1     1     2 1   
     2     1    17 1   
     3     1    18 1   
     4     2     3 1   
     5     2     5 1   
     6     2    19 1   
     7     3     4 1   
     8     3    16 1   
     9     5     6 1   
    10     5    20 1   
    11     5    21 1   
    12     6     7 1   
    13     6    22 1   
    14     6    23 1   
    15     7     8 1   
    16     7    24 1   
    17     7    25 1   
    18     8    13 1   
    19     8    26 1   
    20     8    27 1   
    21     9    10 1   
    22     9    13 1   
    23     9    15 2   
    24    10    11 1   
    25    10    28 1   
    26    10    29 1   
    27    11    12 1   
    28    11    14 1   
    29    11    30 1   
    30    12    31 1   
    31    12    32 1   
    32    12    33 1   
    33    13    34 1   
    34    14    35 1   
@<TRIPOS>SUBSTRUCTURE
     1 KHB         1 TEMP              0 ****  ****    0 ROOT
