@<TRIPOS>MOLECULE
KHB
   35    34     1     0     0
SMALL
bcc


@<TRIPOS>ATOM
      1 N          -12.3440    11.3230    -6.7840 n8         1 KHB      -0.891800
      2 CA         -11.0610    11.2020    -6.0920 c3         1 KHB       0.015500
      3 C          -10.0410    12.3030    -6.4680 c          1 KHB       0.897600
      4 O           -9.9040    12.5240    -7.6910 o          1 KHB      -0.840300
      5 CB         -10.4810     9.8190    -6.3930 c3         1 KHB      -0.045400
      6 CG          -9.1760     9.5030    -5.6720 c3         1 KHB      -0.071400
      7 CD          -8.7200     8.0690    -5.9070 c3         1 KHB      -0.094400
      8 CE          -7.4160     7.7540    -5.1890 c3         1 KHB       0.093000
      9 C1          -6.4030     5.5840    -4.5670 c          1 KHB       0.667100
     10 C2          -5.9920     4.2320    -5.1170 c3         1 KHB      -0.203400
     11 C3          -5.7150     3.1970    -4.0300 c3         1 KHB       0.169100
     12 C4          -5.3630     1.8570    -4.6470 c3         1 KHB      -0.092100
     13 NZ          -6.9810     6.4010    -5.4600 ns         1 KHB      -0.561900
     14 O2          -6.8380     3.0090    -3.1930 oh         1 KHB      -0.607800
     15 O1          -6.2080     5.8980    -3.3970 o          1 KHB      -0.634100
     16 OXT         -9.4310    12.8640    -5.5350 o          1 KHB      -0.840300
     17 H          -12.7870    12.1900    -6.5010 hn         1 KHB       0.326300
     18 HN2        -12.1450    11.4460    -7.7710 hn         1 KHB       0.326300
     19 HA         -11.2600    11.2590    -5.0170 h1         1 KHB       0.038700
     20 HB2        -11.2310     9.0690    -6.1240 hc         1 KHB       0.023200
     21 HB3        -10.3290     9.7250    -7.4740 hc         1 KHB       0.023200
     22 HG2         -8.3880    10.1880    -5.9990 hc         1 KHB       0.054200
     23 HG3         -9.3010     9.6740    -4.5980 hc         1 KHB       0.054200
     24 HD2         -9.4930     7.3730    -5.5680 hc         1 KHB       0.032200
     25 HD3         -8.5970     7.8980    -6.9820 hc         1 KHB       0.032200
     26 HE2         -6.6430     8.4690    -5.4910 h1         1 KHB       0.058200
     27 HE3         -7.5470     7.8650    -4.1130 h1         1 KHB       0.058200
     28 H22         -6.7580     3.8590    -5.8040 hc         1 KHB       0.061200
     29 H23         -5.0870     4.3730    -5.7170 hc         1 KHB       0.061200
     30 H32         -4.8530     3.5400    -3.4430 h1         1 KHB       0.040700
     31 H41         -5.1200     1.1230    -3.8770 hc         1 KHB       0.038367
     32 H42         -6.1910     1.4670    -5.2420 hc         1 KHB       0.038367
     33 H43         -4.4970     1.9530    -5.3020 hc         1 KHB       0.038367
     34 H19         -7.0700     6.0730    -6.4100 hn         1 KHB       0.305500
     35 HO2         -6.9520     3.8190    -2.6850 ho         1 KHB       0.427000
@<TRIPOS>BOND
     1     1     2 1   
     2     1    17 1   
     3     1    18 1   
     4     2     3 1   
     5     2     5 1   
     6     2    19 1   
     7     3     4 1   
     8     3    16 1   
     9     5     6 1   
    10     5    20 1   
    11     5    21 1   
    12     6     7 1   
    13     6    22 1   
    14     6    23 1   
    15     7     8 1   
    16     7    24 1   
    17     7    25 1   
    18     8    13 1   
    19     8    26 1   
    20     8    27 1   
    21     9    10 1   
    22     9    13 1   
    23     9    15 2   
    24    10    11 1   
    25    10    28 1   
    26    10    29 1   
    27    11    12 1   
    28    11    14 1   
    29    11    30 1   
    30    12    31 1   
    31    12    32 1   
    32    12    33 1   
    33    13    34 1   
    34    14    35 1   
@<TRIPOS>SUBSTRUCTURE
     1 KHB         1 TEMP              0 ****  ****    0 ROOT
