@<TRIPOS>MOLECULE
KHC
   40    43     1     0     0
SMALL
No Charge or Current Charge


@<TRIPOS>ATOM
      1 Cl1          4.7610    13.9510    24.8060 cl         1 KHC      -0.169000
      2 C15          4.1450    12.7220    23.6890 ca         1 KHC       0.102000
      3 C14          3.5830    11.5370    24.2210 ca         1 KHC       0.141000
      4 Cl           3.5240    11.2600    25.9630 cl         1 KHC      -0.172000
      5 C13          3.0420    10.5540    23.3690 ca         1 KHC      -0.125000
      6 C12          3.0500    10.7390    21.9760 ca         1 KHC      -0.046000
      7 C16          4.1650    12.8800    22.2770 ca         1 KHC      -0.025200
      8 N            4.6250    13.9430    21.4940 na         1 KHC      -0.028700
      9 C            5.4200    15.0810    21.9920 c3         1 KHC       0.053900
     10 C11          3.6270    11.9110    21.4590 ca         1 KHC      -0.087800
     11 C10          3.7340    12.3600    20.0900 cc         1 KHC      -0.114400
     12 C1           4.3080    13.6270    20.1490 cd         1 KHC      -0.123300
     13 C8           3.2170    11.7880    18.7770 c6         1 KHC       0.068600
     14 C9           3.1190    10.3100    18.7180 c1         1 KHC       0.309900
     15 N3           3.0250     9.1510    18.6410 n1         1 KHC      -0.454000
     16 C3           4.0340    12.3900    17.5680 c6         1 KHC       0.151400
     17 N1           4.1910    13.8450    17.7520 ns         1 KHC      -0.503900
     18 C2           4.4720    14.4800    18.9370 c          1 KHC       0.598200
     19 O            4.8150    15.6510    18.9450 o          1 KHC      -0.556000
     20 C7           3.3070    12.1460    16.2070 c6         1 KHC      -0.131900
     21 C6           4.1270    12.6440    14.9890 c6         1 KHC       0.150300
     22 N2           5.4770    12.0360    14.9760 n7         1 KHC      -0.845400
     23 C5           6.2400    12.3000    16.2180 c6         1 KHC       0.150300
     24 C4           5.4690    11.7720    17.4530 c6         1 KHC      -0.131900
     25 H1           2.6040     9.6540    23.7930 ha         1 KHC       0.135000
     26 H2           2.6060     9.9850    21.3340 ha         1 KHC       0.131000
     27 H3           6.2320    14.7140    22.6300 h1         1 KHC       0.068033
     28 H4           5.8720    15.6310    21.1600 h1         1 KHC       0.068033
     29 H5           4.7760    15.7610    22.5610 h1         1 KHC       0.068033
     30 H6           2.1780    12.1250    18.6680 hc         1 KHC       0.095700
     31 H7           4.2660    14.4240    16.9270 hn         1 KHC       0.327500
     32 H8           2.3270    12.6440    16.2090 hc         1 KHC       0.062700
     33 H9           3.1020    11.0760    16.0670 hc         1 KHC       0.062700
     34 H10          4.2150    13.7410    15.0170 h1         1 KHC       0.058200
     35 H11          3.5970    12.3870    14.0600 h1         1 KHC       0.058200
     36 H12          5.3740    11.0190    14.8690 hn         1 KHC       0.411000
     37 H14          7.2220    11.8070    16.1610 h1         1 KHC       0.058200
     38 H15          6.4240    13.3800    16.3220 h1         1 KHC       0.058200
     39 H16          5.4200    10.6770    17.3770 hc         1 KHC       0.062700
     40 H17          6.0500    11.9850    18.3600 hc         1 KHC       0.062700
@<TRIPOS>BOND
     1     1     2 1   
     2     2     3 ar  
     3     2     7 ar  
     4     3     4 1   
     5     3     5 ar  
     6     5     6 ar  
     7     5    25 1   
     8     6    10 ar  
     9     6    26 1   
    10     7     8 1   
    11     7    10 ar  
    12     8     9 1   
    13     8    12 1   
    14     9    27 1   
    15     9    28 1   
    16     9    29 1   
    17    10    11 1   
    18    11    12 2   
    19    11    13 1   
    20    12    18 1   
    21    13    14 1   
    22    13    16 1   
    23    13    30 1   
    24    14    15 3   
    25    16    17 1   
    26    16    20 1   
    27    16    24 1   
    28    17    18 1   
    29    17    31 1   
    30    18    19 2   
    31    20    21 1   
    32    20    32 1   
    33    20    33 1   
    34    21    22 1   
    35    21    34 1   
    36    21    35 1   
    37    22    23 1   
    38    22    36 1   
    39    23    24 1   
    40    23    37 1   
    41    23    38 1   
    42    24    39 1   
    43    24    40 1   
@<TRIPOS>SUBSTRUCTURE
     1 KHC         1 TEMP              0 ****  ****    0 ROOT
