@<TRIPOS>MOLECULE
KHC
   40    43     1     0     0
SMALL
abcg2


@<TRIPOS>ATOM
      1 CL1          4.9050    13.8310    24.6780 cl         1 KHC      -0.169000
      2 C15          4.2330    12.6670    23.6030 ca         1 KHC       0.102000
      3 C14          3.6930    11.5010    24.1140 ca         1 KHC       0.141000
      4 CL           3.7310    11.2050    25.8120 cl         1 KHC      -0.172000
      5 C13          3.0920    10.5370    23.2920 ca         1 KHC      -0.125000
      6 C12          3.0190    10.7290    21.9360 ca         1 KHC      -0.046000
      7 C16          4.1740    12.8680    22.2140 ca         1 KHC      -0.025200
      8 N            4.6020    13.9040    21.4320 na         1 KHC      -0.028700
      9 C            5.4060    15.0410    21.8550 c3         1 KHC       0.053900
     10 C11          3.5630    11.8940    21.3820 ca         1 KHC      -0.087800
     11 C10          3.6490    12.3960    20.0600 cc         1 KHC      -0.114400
     12 C1           4.2650    13.6120    20.1350 cd         1 KHC      -0.123300
     13 C8           3.1400    11.8830    18.7480 c6         1 KHC       0.068600
     14 C9           3.0770    10.4280    18.7030 c1         1 KHC       0.309900
     15 N3           3.0050     9.2810    18.6560 n1         1 KHC      -0.454000
     16 C3           4.0230    12.4320    17.5950 c6         1 KHC       0.151400
     17 N1           4.1170    13.8750    17.8000 ns         1 KHC      -0.503900
     18 C2           4.3780    14.5020    18.9660 c          1 KHC       0.598200
     19 O            4.6040    15.7020    19.0330 o          1 KHC      -0.556000
     20 C7           3.3420    12.1820    16.2470 c6         1 KHC      -0.131900
     21 C6           4.2260    12.5890    15.0660 c6         1 KHC       0.150300
     22 N2           5.5570    12.0140    15.0990 n7         1 KHC      -0.845400
     23 C5           6.2230    12.2570    16.3660 c6         1 KHC       0.150300
     24 C4           5.4210    11.7960    17.5830 c6         1 KHC      -0.131900
     25 H1           2.6790     9.6450    23.7410 ha         1 KHC       0.135000
     26 H2           2.5410     9.9820    21.3190 ha         1 KHC       0.131000
     27 H3           6.2670    14.7030    22.4230 h1         1 KHC       0.068033
     28 H4           5.7610    15.5640    20.9770 h1         1 KHC       0.068033
     29 H5           4.8210    15.7330    22.4550 h1         1 KHC       0.068033
     30 H6           2.1130    12.2380    18.5900 hc         1 KHC       0.095700
     31 H7           4.1490    14.4660    16.9810 hn         1 KHC       0.327500
     32 H8           2.3870    12.7120    16.2100 hc         1 KHC       0.062700
     33 H9           3.1220    11.1140    16.1610 hc         1 KHC       0.062700
     34 H10          4.3180    13.6800    15.0110 h1         1 KHC       0.058200
     35 H11          3.7350    12.2900    14.1380 h1         1 KHC       0.058200
     36 H12          5.4910    11.0140    14.9450 hn         1 KHC       0.411000
     37 H14          7.1890    11.7490    16.3600 h1         1 KHC       0.058200
     38 H15          6.4390    13.3270    16.4470 h1         1 KHC       0.058200
     39 H16          5.3260    10.7070    17.5440 hc         1 KHC       0.062700
     40 H17          5.9600    12.0350    18.5030 hc         1 KHC       0.062700
@<TRIPOS>BOND
     1     1     2 1   
     2     2     3 ar  
     3     2     7 ar  
     4     3     4 1   
     5     3     5 ar  
     6     5     6 ar  
     7     5    25 1   
     8     6    10 ar  
     9     6    26 1   
    10     7     8 1   
    11     7    10 ar  
    12     8     9 1   
    13     8    12 1   
    14     9    27 1   
    15     9    28 1   
    16     9    29 1   
    17    10    11 1   
    18    11    12 2   
    19    11    13 1   
    20    12    18 1   
    21    13    14 1   
    22    13    16 1   
    23    13    30 1   
    24    14    15 3   
    25    16    17 1   
    26    16    20 1   
    27    16    24 1   
    28    17    18 1   
    29    17    31 1   
    30    18    19 2   
    31    20    21 1   
    32    20    32 1   
    33    20    33 1   
    34    21    22 1   
    35    21    34 1   
    36    21    35 1   
    37    22    23 1   
    38    22    36 1   
    39    23    24 1   
    40    23    37 1   
    41    23    38 1   
    42    24    39 1   
    43    24    40 1   
@<TRIPOS>SUBSTRUCTURE
     1 KHC         1 TEMP              0 ****  ****    0 ROOT
