@<TRIPOS>MOLECULE
KHD
   55    58     1     0     0
SMALL
No Charge or Current Charge


@<TRIPOS>ATOM
      1 N3           1.5970    -4.6010    -0.0780 nb         1 KHD      -0.764000
      2 C4           0.4590    -3.9440    -0.2470 ca         1 KHD       0.632900
      3 C5           0.1280    -2.6900     0.3090 cp         1 KHD      -0.202000
      4 C6           1.1260    -2.1130     1.1230 ca         1 KHD       0.224100
      5 C8          -1.1780    -2.0060     0.0500 cp         1 KHD      -0.019000
      6 C10         -2.4400    -0.0310    -0.6870 ca         1 KHD      -0.123500
      7 C13         -2.4080    -2.6640     0.2930 ca         1 KHD      -0.085500
      8 C15         -5.0970     1.2420    -0.4030 ca         1 KHD       0.137100
      9 C17         -6.1840     3.3290    -1.0310 ca         1 KHD      -0.079500
     10 C20         -4.5560     1.8680     0.7370 ca         1 KHD      -0.160500
     11 C22          1.8020     0.1030     1.8140 ca         1 KHD       0.120100
     12 C24          2.7300     1.9820     3.0430 ca         1 KHD      -0.073000
     13 C26          3.6480     1.3910     0.8550 ca         1 KHD      -0.005000
     14 O31          4.4650    -0.0330    -1.7020 o          1 KHD      -0.571100
     15 C29          4.9440     1.0350    -1.3370 c          1 KHD       0.606100
     16 C30          6.0360     1.7410    -2.1540 c3         1 KHD      -0.157400
     17 C32          5.4640     2.3950    -3.4320 c3         1 KHD      -0.078100
     18 N28          4.5960     1.6890    -0.1620 ns         1 KHD      -0.152000
     19 C27          2.7110     0.3380     0.7630 ca         1 KHD      -0.145000
     20 C23          1.8060     0.9300     2.9470 ca         1 KHD      -0.141000
     21 C25          3.6450     2.2070     2.0010 ca         1 KHD      -0.172000
     22 O21          0.8710    -0.9080     1.7380 os         1 KHD      -0.243200
     23 N7          -0.3240    -4.6340    -1.0800 nv         1 KHD      -1.049900
     24 C2           2.5270    -4.0290     0.7140 ca         1 KHD       0.414900
     25 C1           2.3320    -2.7920     1.3350 ca         1 KHD      -0.294000
     26 C9          -1.2160    -0.6790    -0.4460 ca         1 KHD      -0.085500
     27 C11         -3.6520    -0.6980    -0.4250 ca         1 KHD       0.097100
     28 C12         -3.6340    -2.0170     0.0540 ca         1 KHD      -0.123500
     29 O14         -4.8650    -0.0910    -0.6620 os         1 KHD      -0.259200
     30 C16         -5.9190     1.9710    -1.2790 ca         1 KHD      -0.160500
     31 C18         -5.6320     3.9560     0.1000 ca         1 KHD      -0.144000
     32 C19         -4.8210     3.2260     0.9860 ca         1 KHD      -0.079500
     33 H1          -2.4440     0.9830    -1.0780 ha         1 KHD       0.129000
     34 H2          -2.4090    -3.6800     0.6800 ha         1 KHD       0.124500
     35 H3          -6.8160     3.8940    -1.7130 ha         1 KHD       0.112000
     36 H4          -3.9370     1.3050     1.4310 ha         1 KHD       0.127500
     37 H5           2.7360     2.6220     3.9230 ha         1 KHD       0.119000
     38 H6           6.5110     2.5250    -1.5510 hc         1 KHD       0.057700
     39 H7           6.7860     1.0000    -2.4540 hc         1 KHD       0.057700
     40 H8           4.7060     3.1460    -3.1780 hc         1 KHD       0.045700
     41 H9           6.2620     2.8910    -3.9980 hc         1 KHD       0.045700
     42 H10          5.0010     1.6420    -4.0810 hc         1 KHD       0.045700
     43 H11          5.1120     2.5440     0.0010 hn         1 KHD       0.149000
     44 H12          2.6650    -0.2940    -0.1160 ha         1 KHD       0.163000
     45 H13          1.0940     0.7540     3.7490 ha         1 KHD       0.134000
     46 H14          4.3570     3.0260     2.0870 ha         1 KHD       0.112000
     47 H15          0.1570    -5.3620    -1.5920 hn         1 KHD       0.476500
     48 H16         -1.0290    -4.1120    -1.5850 hn         1 KHD       0.476500
     49 H17          3.4550    -4.5820     0.8550 h4         1 KHD       0.016100
     50 H18          3.1060    -2.3770     1.9730 ha         1 KHD       0.137000
     51 H19         -0.2870    -0.1540    -0.6520 ha         1 KHD       0.124500
     52 H20         -4.5700    -2.5360     0.2470 ha         1 KHD       0.129000
     53 H21         -6.3460     1.4830    -2.1510 ha         1 KHD       0.127500
     54 H22         -5.8380     5.0070     0.2920 ha         1 KHD       0.114000
     55 H23         -4.4000     3.7120     1.8640 ha         1 KHD       0.112000
@<TRIPOS>BOND
     1     1     2 ar  
     2     1    24 ar  
     3     2     3 ar  
     4     2    23 1   
     5     3     4 ar  
     6     3     5 1   
     7     4    22 1   
     8     4    25 ar  
     9     5     7 ar  
    10     5    26 ar  
    11     6    26 ar  
    12     6    27 ar  
    13     6    33 1   
    14     7    28 ar  
    15     7    34 1   
    16     8    10 ar  
    17     8    29 1   
    18     8    30 ar  
    19     9    30 ar  
    20     9    31 ar  
    21     9    35 1   
    22    10    32 ar  
    23    10    36 1   
    24    11    19 ar  
    25    11    20 ar  
    26    11    22 1   
    27    12    20 ar  
    28    12    21 ar  
    29    12    37 1   
    30    13    18 1   
    31    13    19 ar  
    32    13    21 ar  
    33    14    15 2   
    34    15    16 1   
    35    15    18 1   
    36    16    17 1   
    37    16    38 1   
    38    16    39 1   
    39    17    40 1   
    40    17    41 1   
    41    17    42 1   
    42    18    43 1   
    43    19    44 1   
    44    20    45 1   
    45    21    46 1   
    46    23    47 1   
    47    23    48 1   
    48    24    25 ar  
    49    24    49 1   
    50    25    50 1   
    51    26    51 1   
    52    27    28 ar  
    53    27    29 1   
    54    28    52 1   
    55    30    53 1   
    56    31    32 ar  
    57    31    54 1   
    58    32    55 1   
@<TRIPOS>SUBSTRUCTURE
     1 KHD         1 TEMP              0 ****  ****    0 ROOT
