@<TRIPOS>MOLECULE
KHD
   55    58     1     0     0
SMALL
abcg2


@<TRIPOS>ATOM
      1 N3           1.1230    -4.6800     0.5640 nb         1 KHD      -0.764000
      2 C4           0.0310    -4.0010     0.2110 ca         1 KHD       0.632900
      3 C5          -0.0660    -2.6000     0.3220 cp         1 KHD      -0.202000
      4 C6           1.0410    -1.9230     0.8200 ca         1 KHD       0.224100
      5 C8          -1.2940    -1.8780    -0.0770 cp         1 KHD      -0.019000
      6 C10         -2.4610    -0.3930    -1.5880 ca         1 KHD      -0.123500
      7 C13         -2.4710    -2.0220     0.6570 ca         1 KHD      -0.085500
      8 C15         -5.1920     1.1960    -0.6560 ca         1 KHD       0.137100
      9 C17         -6.9450     2.8270    -0.4630 ca         1 KHD      -0.079500
     10 C20         -4.4310     1.8950     0.2730 ca         1 KHD      -0.160500
     11 C22          2.0030     0.1560     1.3470 ca         1 KHD       0.120100
     12 C24          3.2100     1.2460     3.0780 ca         1 KHD      -0.073000
     13 C26          3.9980     1.3630     0.7970 ca         1 KHD      -0.005000
     14 O31          4.2290     1.1790    -2.1110 o          1 KHD      -0.571100
     15 C29          5.0700     1.7280    -1.4240 c          1 KHD       0.606100
     16 C30          6.3370     2.3220    -2.0000 c3         1 KHD      -0.157400
     17 C32          6.2310     2.6330    -3.4820 c3         1 KHD      -0.078100
     18 N28          4.9780     1.8440    -0.0700 ns         1 KHD      -0.152000
     19 C27          2.9120     0.5870     0.3930 ca         1 KHD      -0.145000
     20 C23          2.1260     0.4690     2.6880 ca         1 KHD      -0.141000
     21 C25          4.1360     1.6860     2.1510 ca         1 KHD      -0.172000
     22 O21          0.9210    -0.5830     0.9270 os         1 KHD      -0.243200
     23 N7          -1.0220    -4.7400    -0.2400 nv         1 KHD      -1.049900
     24 C2           2.1550    -3.9970     1.0380 ca         1 KHD       0.414900
     25 C1           2.1870    -2.6250     1.1910 ca         1 KHD      -0.294000
     26 C9          -1.3060    -1.0580    -1.2030 ca         1 KHD      -0.085500
     27 C11         -3.6200    -0.5570    -0.8460 ca         1 KHD       0.097100
     28 C12         -3.6320    -1.3670     0.2800 ca         1 KHD      -0.123500
     29 O14         -4.7760     0.0510    -1.2670 os         1 KHD      -0.259200
     30 C16         -6.4510     1.6610    -1.0260 ca         1 KHD      -0.160500
     31 C18         -6.1960     3.5340     0.4700 ca         1 KHD      -0.144000
     32 C19         -4.9430     3.0620     0.8300 ca         1 KHD      -0.079500
     33 H1          -2.4620     0.2410    -2.4660 ha         1 KHD       0.129000
     34 H2          -2.4810    -2.6560     1.5350 ha         1 KHD       0.124500
     35 H3          -7.9250     3.1810    -0.7560 ha         1 KHD       0.112000
     36 H4          -3.4470     1.5530     0.5660 ha         1 KHD       0.127500
     37 H5           3.3350     1.5090     4.1200 ha         1 KHD       0.119000
     38 H6           6.6170     3.2170    -1.4400 hc         1 KHD       0.057700
     39 H7           7.1400     1.5980    -1.8260 hc         1 KHD       0.057700
     40 H8           5.4650     3.3820    -3.6800 hc         1 KHD       0.045700
     41 H9           7.1800     3.0240    -3.8480 hc         1 KHD       0.045700
     42 H10          5.9920     1.7450    -4.0640 hc         1 KHD       0.045700
     43 H11          5.7350     2.3350     0.3820 hn         1 KHD       0.149000
     44 H12          2.7650     0.3170    -0.6400 ha         1 KHD       0.163000
     45 H13          1.3980     0.1190     3.4080 ha         1 KHD       0.134000
     46 H14          4.9770     2.2870     2.4770 ha         1 KHD       0.112000
     47 H15         -0.7990    -5.6770    -0.5350 hn         1 KHD       0.476500
     48 H16         -1.7190    -4.2840    -0.8050 hn         1 KHD       0.476500
     49 H17          3.0260    -4.5800     1.3170 h4         1 KHD       0.016100
     50 H18          3.0680    -2.1420     1.5850 ha         1 KHD       0.137000
     51 H19         -0.4060    -0.9410    -1.7920 ha         1 KHD       0.124500
     52 H20         -4.5420    -1.4900     0.8540 ha         1 KHD       0.129000
     53 H21         -7.0350     1.1100    -1.7520 ha         1 KHD       0.127500
     54 H22         -6.5850     4.4430     0.9100 ha         1 KHD       0.114000
     55 H23         -4.3460     3.6030     1.5530 ha         1 KHD       0.112000
@<TRIPOS>BOND
     1     1     2 ar  
     2     1    24 ar  
     3     2     3 ar  
     4     2    23 1   
     5     3     4 ar  
     6     3     5 1   
     7     4    22 1   
     8     4    25 ar  
     9     5     7 ar  
    10     5    26 ar  
    11     6    26 ar  
    12     6    27 ar  
    13     6    33 1   
    14     7    28 ar  
    15     7    34 1   
    16     8    10 ar  
    17     8    29 1   
    18     8    30 ar  
    19     9    30 ar  
    20     9    31 ar  
    21     9    35 1   
    22    10    32 ar  
    23    10    36 1   
    24    11    19 ar  
    25    11    20 ar  
    26    11    22 1   
    27    12    20 ar  
    28    12    21 ar  
    29    12    37 1   
    30    13    18 1   
    31    13    19 ar  
    32    13    21 ar  
    33    14    15 2   
    34    15    16 1   
    35    15    18 1   
    36    16    17 1   
    37    16    38 1   
    38    16    39 1   
    39    17    40 1   
    40    17    41 1   
    41    17    42 1   
    42    18    43 1   
    43    19    44 1   
    44    20    45 1   
    45    21    46 1   
    46    23    47 1   
    47    23    48 1   
    48    24    25 ar  
    49    24    49 1   
    50    25    50 1   
    51    26    51 1   
    52    27    28 ar  
    53    27    29 1   
    54    28    52 1   
    55    30    53 1   
    56    31    32 ar  
    57    31    54 1   
    58    32    55 1   
@<TRIPOS>SUBSTRUCTURE
     1 KHD         1 TEMP              0 ****  ****    0 ROOT
