@<TRIPOS>MOLECULE
KHE
   66    70     1     0     0
SMALL
abcg2


@<TRIPOS>ATOM
      1 N1          41.4220    18.8770   244.7730 n1         1 KHE      -0.449000
      2 N3          38.0150    23.2400   247.2840 nt         1 KHE      -0.597000
      3 C4          39.7390    22.4820   244.9890 cc         1 KHE      -0.088000
      4 C5          40.1320    23.0570   246.1800 cd         1 KHE      -0.326600
      5 C6          39.3370    23.4440   247.3490 c          1 KHE       0.667700
      6 C7          41.5380    23.2000   246.0370 cd         1 KHE       0.451900
      7 C8          43.7000    23.9480   246.9430 c          1 KHE       0.645100
      8 C10         45.6760    24.1580   248.5620 cx         1 KHE      -0.098900
      9 C13         39.7220    20.8730   240.9210 c6         1 KHE       0.168800
     10 C15         38.6160    21.6510   238.2440 ca         1 KHE      -0.092300
     11 C17         36.9610    20.6380   236.8020 ca         1 KHE      -0.103000
     12 C20         34.2920    21.0920   235.4910 ca         1 KHE      -0.099000
     13 C21         32.9840    20.9940   235.0390 ca         1 KHE      -0.111000
     14 C22         31.9240    21.1650   235.9200 ca         1 KHE      -0.105000
     15 C24         33.4930    21.5300   237.7090 ca         1 KHE      -0.099000
     16 C26         37.6200    22.4780   238.7580 ca         1 KHE      -0.099500
     17 C1          41.6940    19.6590   243.9740 c1         1 KHE       0.299900
     18 O1          39.8800    23.9330   248.3420 o          1 KHE      -0.646100
     19 C11         45.3890    25.5240   248.0600 cx         1 KHE      -0.098900
     20 C12         39.6390    21.2510   242.3920 c6         1 KHE      -0.094400
     21 C14         40.0440    21.7760   238.7080 c3         1 KHE       0.221100
     22 C16         38.2650    20.7290   237.2650 ca         1 KHE      -0.099500
     23 C18         35.9600    21.4630   237.3140 cp         1 KHE      -0.028000
     24 C19         34.5680    21.3610   236.8330 cp         1 KHE      -0.036000
     25 O2          44.3760    23.6940   245.9640 o          1 KHE      -0.569100
     26 C2          42.0360    20.6530   242.9720 c3         1 KHE      -0.024300
     27 N2          40.8390    22.3210   244.2530 na         1 KHE       0.136800
     28 C23         32.1850    21.4340   237.2570 ca         1 KHE      -0.111000
     29 C25         36.3150    22.3830   238.3030 ca         1 KHE      -0.103000
     30 C3          40.9790    21.7740   242.9100 c6         1 KHE       0.097000
     31 N4          42.3570    23.7320   247.0100 ns         1 KHE      -0.475400
     32 N5          41.9490    22.7540   244.8730 nc         1 KHE      -0.546800
     33 N6          40.1440    22.0100   240.1320 n3         1 KHE      -0.721600
     34 C9          44.2640    24.5290   248.1890 cx         1 KHE      -0.243700
     35 C27         41.4610    22.4580   240.5210 c6         1 KHE       0.137800
     36 C28         41.4910    22.8800   241.9750 c6         1 KHE       0.198300
     37 F1          40.6680    23.9840   242.1470 f          1 KHE      -0.245000
     38 H1          37.4270    23.5220   248.0510 hn         1 KHE       0.314000
     39 H2          37.5550    22.8870   246.4640 hn         1 KHE       0.314000
     40 H3          38.7630    22.1830   244.6460 h4         1 KHE       0.154000
     41 H4          46.1960    23.4720   247.9070 hc         1 KHE       0.081200
     42 H5          45.8800    24.0240   249.6160 hc         1 KHE       0.081200
     43 H6          38.7300    20.5560   240.5990 h1         1 KHE       0.045200
     44 H7          40.3880    20.0050   240.7760 h1         1 KHE       0.045200
     45 H8          36.7190    19.8930   236.0540 ha         1 KHE       0.116000
     46 H10         32.7930    20.7930   233.9930 ha         1 KHE       0.113000
     47 H11         30.9040    21.0880   235.5680 ha         1 KHE       0.114000
     48 H12         33.6780    21.7170   238.7600 ha         1 KHE       0.113500
     49 H13         37.8680    23.1980   239.5280 ha         1 KHE       0.120500
     50 H14         45.3910    26.3480   248.7610 hc         1 KHE       0.081200
     51 H15         45.7120    25.7790   247.0590 hc         1 KHE       0.081200
     52 H16         38.8730    22.0220   242.4960 hc         1 KHE       0.068700
     53 H17         39.3110    20.3880   242.9760 hc         1 KHE       0.068700
     54 H18         40.6100    20.8870   238.3860 h1         1 KHE       0.042700
     55 H19         40.5040    22.6280   238.1960 h1         1 KHE       0.042700
     56 H20         39.0180    20.0620   236.8620 ha         1 KHE       0.120500
     57 H21         42.1350    20.1480   242.0110 hc         1 KHE       0.093200
     58 H22         43.0160    21.0610   243.2220 hc         1 KHE       0.093200
     59 H23         31.3680    21.5620   237.9550 ha         1 KHE       0.113000
     60 H24         35.5660    23.0500   238.7130 ha         1 KHE       0.116000
     61 H25         41.8570    23.9970   247.8500 hn         1 KHE       0.363500
     62 H27         43.5720    24.6830   249.0080 hc         1 KHE       0.093700
     63 H28         42.2400    21.6930   240.3620 h1         1 KHE       0.049700
     64 H29         41.7520    23.3150   239.9090 h1         1 KHE       0.049700
     65 H30         42.5060    23.1720   242.2570 h1         1 KHE       0.089700
     66 H9          35.1060    20.9770   234.7860 ha         1 KHE       0.113500
@<TRIPOS>BOND
     1     1    17 3   
     2     2     5 1   
     3     2    38 1   
     4     2    39 1   
     5     3     4 2   
     6     3    27 1   
     7     3    40 1   
     8     4     5 1   
     9     4     6 1   
    10     5    18 2   
    11     6    31 1   
    12     6    32 2   
    13     7    25 2   
    14     7    31 1   
    15     7    34 1   
    16     8    19 1   
    17     8    34 1   
    18     8    41 1   
    19     8    42 1   
    20     9    20 1   
    21     9    33 1   
    22     9    43 1   
    23     9    44 1   
    24    10    16 ar  
    25    10    21 1   
    26    10    22 ar  
    27    11    22 ar  
    28    11    23 ar  
    29    11    45 1   
    30    12    13 ar  
    31    12    24 ar  
    32    12    66 1   
    33    13    14 ar  
    34    13    46 1   
    35    14    28 ar  
    36    14    47 1   
    37    15    24 ar  
    38    15    28 ar  
    39    15    48 1   
    40    16    29 ar  
    41    16    49 1   
    42    17    26 1   
    43    19    34 1   
    44    19    50 1   
    45    19    51 1   
    46    20    30 1   
    47    20    52 1   
    48    20    53 1   
    49    21    33 1   
    50    21    54 1   
    51    21    55 1   
    52    22    56 1   
    53    23    24 1   
    54    23    29 ar  
    55    26    30 1   
    56    26    57 1   
    57    26    58 1   
    58    27    30 1   
    59    27    32 1   
    60    28    59 1   
    61    29    60 1   
    62    30    36 1   
    63    31    61 1   
    64    33    35 1   
    65    34    62 1   
    66    35    36 1   
    67    35    63 1   
    68    35    64 1   
    69    36    37 1   
    70    36    65 1   
@<TRIPOS>SUBSTRUCTURE
     1 KHE         1 TEMP              0 ****  ****    0 ROOT
