@<TRIPOS>MOLECULE
KHE
   66    70     1     0     0
SMALL
No Charge or Current Charge


@<TRIPOS>ATOM
      1 N1          41.0610    18.4350   244.4640 n1         1 KHE      -0.449000
      2 N3          38.4480    23.0340   247.4460 nt         1 KHE      -0.597000
      3 C4          39.9970    22.3680   245.1230 cc         1 KHE      -0.088000
      4 C5          40.5300    22.8730   246.2830 cd         1 KHE      -0.326600
      5 C6          39.7780    23.2280   247.4990 c          1 KHE       0.667700
      6 C7          41.9130    22.9780   246.0810 cd         1 KHE       0.451900
      7 C8          44.0770    23.6360   247.0770 c          1 KHE       0.645100
      8 C10         45.5160    25.3940   248.3520 cx         1 KHE      -0.098900
      9 C13         39.5490    21.0150   240.8770 c6         1 KHE       0.168800
     10 C15         38.6070    21.6900   238.0940 ca         1 KHE      -0.092300
     11 C17         36.7460    20.4050   237.1780 ca         1 KHE      -0.103000
     12 C20         34.1000    20.6270   235.6700 ca         1 KHE      -0.099000
     13 C21         32.7650    20.5540   235.2360 ca         1 KHE      -0.111000
     14 C22         31.7740    21.3150   235.8770 ca         1 KHE      -0.105000
     15 C24         33.4570    22.2230   237.3840 ca         1 KHE      -0.099000
     16 C26         37.7810    22.8270   238.1370 ca         1 KHE      -0.099500
     17 C1          41.4600    19.2670   243.7540 c1         1 KHE       0.299900
     18 O1          40.2940    23.6740   248.5090 o          1 KHE      -0.646100
     19 C11         44.0990    25.5450   248.8520 cx         1 KHE      -0.098900
     20 C12         39.6160    21.4040   242.3760 c6         1 KHE      -0.094400
     21 C14         40.0550    21.7740   238.5700 c3         1 KHE       0.221100
     22 C16         38.0810    20.4770   237.6120 ca         1 KHE      -0.099500
     23 C18         35.8990    21.5420   237.2140 cp         1 KHE      -0.028000
     24 C19         34.4750    21.4630   236.7530 cp         1 KHE      -0.036000
     25 O2          44.8190    23.3770   246.1400 o          1 KHE      -0.569100
     26 C2          41.9300    20.3200   242.8430 c3         1 KHE      -0.024300
     27 N2          41.1040    22.2050   244.2800 na         1 KHE       0.136800
     28 C23         32.1210    22.1490   236.9520 ca         1 KHE      -0.111000
     29 C25         36.4460    22.7540   237.7040 ca         1 KHE      -0.103000
     30 C3          41.0840    21.6520   242.8820 c6         1 KHE       0.097000
     31 N4          42.7210    23.4530   247.0730 ns         1 KHE      -0.475400
     32 N5          42.2900    22.5780   244.8900 nc         1 KHE      -0.546800
     33 N6          40.1800    22.0560   240.0210 n3         1 KHE      -0.721600
     34 C9          44.5940    24.1900   248.3810 cx         1 KHE      -0.243700
     35 C27         41.5910    22.3400   240.4250 c6         1 KHE       0.137800
     36 C28         41.7310    22.7180   241.9300 c6         1 KHE       0.198300
     37 F1          41.0930    23.9700   242.1220 f          1 KHE      -0.245000
     38 H1          37.8880    23.2610   248.2530 hn         1 KHE       0.314000
     39 H2          38.0240    22.6660   246.6110 hn         1 KHE       0.314000
     40 H3          38.9810    22.1220   244.8430 h4         1 KHE       0.154000
     41 H4          45.7600    25.8330   247.3870 hc         1 KHE       0.081200
     42 H5          46.3190    25.4380   249.0850 hc         1 KHE       0.081200
     43 H6          38.4890    20.8920   240.6080 h1         1 KHE       0.045200
     44 H7          40.0270    20.0380   240.7180 h1         1 KHE       0.045200
     45 H8          36.3610    19.4530   236.8230 ha         1 KHE       0.116000
     46 H10         32.4990    19.9090   234.4010 ha         1 KHE       0.113000
     47 H11         30.7410    21.2580   235.5420 ha         1 KHE       0.114000
     48 H12         33.7000    22.8650   238.2270 ha         1 KHE       0.113500
     49 H13         38.1760    23.7700   238.5110 ha         1 KHE       0.120500
     50 H14         43.9520    25.6890   249.9200 hc         1 KHE       0.081200
     51 H15         43.4000    26.0910   248.2220 hc         1 KHE       0.081200
     52 H16         39.0170    22.3150   242.5080 hc         1 KHE       0.068700
     53 H17         39.1200    20.6250   242.9700 hc         1 KHE       0.068700
     54 H18         40.5730    20.8380   238.3240 h1         1 KHE       0.042700
     55 H19         40.5490    22.5700   237.9960 h1         1 KHE       0.042700
     56 H20         38.7040    19.5860   237.5770 ha         1 KHE       0.120500
     57 H21         41.9650    19.8890   241.8380 hc         1 KHE       0.093200
     58 H22         42.9730    20.5310   243.1060 hc         1 KHE       0.093200
     59 H23         31.3550    22.7370   237.4520 ha         1 KHE       0.113000
     60 H24         35.8340    23.6520   237.7380 ha         1 KHE       0.116000
     61 H25         42.2650    23.7170   247.9370 hn         1 KHE       0.363500
     62 H27         44.7910    23.4430   249.1460 hc         1 KHE       0.093700
     63 H28         42.2310    21.4710   240.2110 h1         1 KHE       0.049700
     64 H29         41.9920    23.1710   239.8260 h1         1 KHE       0.049700
     65 H30         42.7920    22.8600   242.1770 h1         1 KHE       0.089700
     66 H9          34.8530    20.0400   235.1500 ha         1 KHE       0.113500
@<TRIPOS>BOND
     1     1    17 3   
     2     2     5 1   
     3     2    38 1   
     4     2    39 1   
     5     3     4 2   
     6     3    27 1   
     7     3    40 1   
     8     4     5 1   
     9     4     6 1   
    10     5    18 2   
    11     6    31 1   
    12     6    32 2   
    13     7    25 2   
    14     7    31 1   
    15     7    34 1   
    16     8    19 1   
    17     8    34 1   
    18     8    41 1   
    19     8    42 1   
    20     9    20 1   
    21     9    33 1   
    22     9    43 1   
    23     9    44 1   
    24    10    16 ar  
    25    10    21 1   
    26    10    22 ar  
    27    11    22 ar  
    28    11    23 ar  
    29    11    45 1   
    30    12    13 ar  
    31    12    24 ar  
    32    12    66 1   
    33    13    14 ar  
    34    13    46 1   
    35    14    28 ar  
    36    14    47 1   
    37    15    24 ar  
    38    15    28 ar  
    39    15    48 1   
    40    16    29 ar  
    41    16    49 1   
    42    17    26 1   
    43    19    34 1   
    44    19    50 1   
    45    19    51 1   
    46    20    30 1   
    47    20    52 1   
    48    20    53 1   
    49    21    33 1   
    50    21    54 1   
    51    21    55 1   
    52    22    56 1   
    53    23    24 1   
    54    23    29 ar  
    55    26    30 1   
    56    26    57 1   
    57    26    58 1   
    58    27    30 1   
    59    27    32 1   
    60    28    59 1   
    61    29    60 1   
    62    30    36 1   
    63    31    61 1   
    64    33    35 1   
    65    34    62 1   
    66    35    36 1   
    67    35    63 1   
    68    35    64 1   
    69    36    37 1   
    70    36    65 1   
@<TRIPOS>SUBSTRUCTURE
     1 KHE         1 TEMP              0 ****  ****    0 ROOT
