@<TRIPOS>MOLECULE
KHF
   76    80     1     0     0
SMALL
abcg2


@<TRIPOS>ATOM
      1 C1         117.4310   118.7000   115.4680 c3         1 KHF      -0.049300
      2 C10        116.6590   122.1510   115.5530 c3         1 KHF      -0.343400
      3 C11        115.4560   124.9770   114.3790 c6         1 KHF       0.194800
      4 C12        114.9100   125.9540   113.3530 c6         1 KHF      -0.045900
      5 C13        115.0360   125.3880   111.9370 c5         1 KHF       0.026200
      6 C14        114.3090   124.0400   111.8840 c6         1 KHF      -0.045900
      7 C15        114.8660   123.0820   112.9210 c6         1 KHF       0.194800
      8 C16        116.6380   125.9270   110.5270 ce         1 KHF       0.524500
      9 C17        114.4690   126.3550   110.9070 c          1 KHF       0.544000
     10 C18        117.9310   125.9930   109.8410 ca         1 KHF      -0.154900
     11 C19        119.0030   125.2650   110.3600 ca         1 KHF      -0.044500
     12 C2         118.5920   119.5260   115.9470 ca         1 KHF      -0.061800
     13 C20        120.2330   125.2820   109.7390 ca         1 KHF      -0.145500
     14 C21        120.4100   126.0300   108.5810 ca         1 KHF       0.166100
     15 C22        122.0790   126.6630   106.9930 c3         1 KHF       0.525000
     16 C23        119.3630   126.7630   108.0450 ca         1 KHF      -0.145500
     17 C24        118.1310   126.7360   108.6840 ca         1 KHF      -0.044500
     18 C25        123.0130   118.6270   116.8180 c          1 KHF       0.624000
     19 C26        124.3530   118.9040   114.9800 c          1 KHF       0.565000
     20 C27        123.0260   119.5940   114.6810 c5         1 KHF       0.046400
     21 C28        122.3650   118.9450   113.4700 c3         1 KHF      -0.093100
     22 C29        123.2500   121.0850   114.4560 c3         1 KHF      -0.093100
     23 C3         119.8870   119.0630   115.7400 ca         1 KHF      -0.105000
     24 C4         120.9790   119.7970   116.1720 ca         1 KHF      -0.027000
     25 C5         120.7820   120.9960   116.8390 ca         1 KHF      -0.105000
     26 C6         119.4980   121.4820   117.0650 ca         1 KHF      -0.061800
     27 C7         119.3240   122.7820   117.7990 c3         1 KHF      -0.049300
     28 C8         118.3970   120.7450   116.6090 ca         1 KHF      -0.069300
     29 C9         117.0010   121.2910   116.7720 c3         1 KHF       0.002900
     30 F1         121.9550   127.9760   107.1780 f          1 KHF      -0.102333
     31 F2         121.4140   126.3500   105.8810 f          1 KHF      -0.102333
     32 F3         123.3580   126.3910   106.7980 f          1 KHF      -0.102333
     33 N1         114.7710   123.6860   114.2540 n3         1 KHF      -0.710500
     34 N2         116.4280   125.2220   111.5680 n2         1 KHF      -0.630900
     35 N3         115.5250   126.6250   110.0840 ns         1 KHF      -0.464400
     36 N4         122.2910   119.3320   115.9170 n          1 KHF      -0.262400
     37 N5         124.2490   118.3800   116.2280 ns         1 KHF      -0.481500
     38 O1         114.6720   123.4200   116.7490 o          1 KHF      -0.528000
     39 O2         114.1280   121.4750   115.2670 o          1 KHF      -0.528000
     40 O4         121.6790   125.9510   108.0540 os         1 KHF      -0.405100
     41 O6         125.3050   118.8420   114.2410 o          1 KHF      -0.504000
     42 S1         114.9380   122.6540   115.5400 s6         1 KHF       1.178100
     43 H1         116.8150   118.3570   116.3020 hc         1 KHF       0.046200
     44 H2         116.7730   119.2560   114.7970 hc         1 KHF       0.046200
     45 H3         117.7750   117.8180   114.9310 hc         1 KHF       0.046200
     46 H4         116.8310   121.6110   114.6210 h1         1 KHF       0.092200
     47 H5         117.2660   123.0570   115.5320 h1         1 KHF       0.092200
     48 H6         116.5370   124.8660   114.2420 h1         1 KHF       0.062450
     49 H7         115.2850   125.3780   115.3750 h1         1 KHF       0.062450
     50 H8         115.4590   126.8940   113.4380 hc         1 KHF       0.068700
     51 H9         113.8590   126.1630   113.5600 hc         1 KHF       0.068700
     52 H10        113.2440   124.2030   112.0620 hc         1 KHF       0.068700
     53 H11        114.4160   123.5900   110.8960 hc         1 KHF       0.068700
     54 H12        114.2830   122.1640   112.9020 h1         1 KHF       0.062450
     55 H13        115.9030   122.8300   112.6740 h1         1 KHF       0.062450
     56 H14        118.8690   124.6780   111.2580 ha         1 KHF       0.131000
     57 H15        121.0600   124.7150   110.1470 ha         1 KHF       0.141500
     58 H16        119.4520   127.3550   107.1470 ha         1 KHF       0.141500
     59 H17        117.3320   127.3150   108.2410 ha         1 KHF       0.131000
     60 H18        121.4000   119.4120   113.2700 hc         1 KHF       0.053867
     61 H19        122.9900   119.0790   112.5880 hc         1 KHF       0.053867
     62 H20        122.2070   117.8770   113.6240 hc         1 KHF       0.053867
     63 H21        123.7350   121.5510   115.3140 hc         1 KHF       0.053867
     64 H22        123.8740   121.2410   113.5770 hc         1 KHF       0.053867
     65 H23        122.2970   121.5850   114.2850 hc         1 KHF       0.053867
     66 H24        120.0460   118.1190   115.2320 ha         1 KHF       0.122000
     67 H25        121.6400   121.5630   117.1820 ha         1 KHF       0.122000
     68 H26        118.7950   122.6420   118.7430 hc         1 KHF       0.046200
     69 H27        120.2890   123.2310   118.0280 hc         1 KHF       0.046200
     70 H28        118.7540   123.5110   117.2200 hc         1 KHF       0.046200
     71 H29        116.9210   121.8920   117.6760 hc         1 KHF       0.067700
     72 H30        116.2810   120.4790   116.8710 hc         1 KHF       0.067700
     73 H31        115.4760   127.2470   109.2910 hn         1 KHF       0.349500
     74 H32        124.9810   117.8600   116.6930 hn         1 KHF       0.357500
     75 O5         122.6790   118.2670   117.9230 o          1 KHF      -0.531000
     76 O3         113.3460   126.7940   110.8210 o          1 KHF      -0.492000
@<TRIPOS>BOND
     1     1    12 1   
     2     1    43 1   
     3     1    44 1   
     4     1    45 1   
     5     2    29 1   
     6     2    42 1   
     7     2    46 1   
     8     2    47 1   
     9     3     4 1   
    10     3    33 1   
    11     3    48 1   
    12     3    49 1   
    13     4     5 1   
    14     4    50 1   
    15     4    51 1   
    16     5     6 1   
    17     5     9 1   
    18     5    34 1   
    19     6     7 1   
    20     6    52 1   
    21     6    53 1   
    22     7    33 1   
    23     7    54 1   
    24     7    55 1   
    25     8    10 1   
    26     8    34 2   
    27     8    35 1   
    28     9    35 1   
    29     9    76 2   
    30    10    11 ar  
    31    10    17 ar  
    32    11    13 ar  
    33    11    56 1   
    34    12    23 ar  
    35    12    28 ar  
    36    13    14 ar  
    37    13    57 1   
    38    14    16 ar  
    39    14    40 1   
    40    15    30 1   
    41    15    31 1   
    42    15    32 1   
    43    15    40 1   
    44    16    17 ar  
    45    16    58 1   
    46    17    59 1   
    47    18    36 1   
    48    18    37 1   
    49    18    75 2   
    50    19    20 1   
    51    19    37 1   
    52    19    41 2   
    53    20    21 1   
    54    20    22 1   
    55    20    36 1   
    56    21    60 1   
    57    21    61 1   
    58    21    62 1   
    59    22    63 1   
    60    22    64 1   
    61    22    65 1   
    62    23    24 ar  
    63    23    66 1   
    64    24    25 ar  
    65    24    36 1   
    66    25    26 ar  
    67    25    67 1   
    68    26    27 1   
    69    26    28 ar  
    70    27    68 1   
    71    27    69 1   
    72    27    70 1   
    73    28    29 1   
    74    29    71 1   
    75    29    72 1   
    76    33    42 1   
    77    35    73 1   
    78    37    74 1   
    79    38    42 2   
    80    39    42 2   
@<TRIPOS>SUBSTRUCTURE
     1 KHF         1 TEMP              0 ****  ****    0 ROOT
