@<TRIPOS>MOLECULE
KHF
   76    80     1     0     0
SMALL
No Charge or Current Charge


@<TRIPOS>ATOM
      1 C1         117.6330   118.7480   114.9330 c3         1 KHF      -0.049300
      2 C10        116.4850   122.1560   115.5290 c3         1 KHF      -0.343400
      3 C11        115.3370   125.0520   114.4890 c6         1 KHF       0.194800
      4 C12        114.8920   126.0990   113.4390 c6         1 KHF      -0.045900
      5 C13        114.9620   125.5480   111.9860 c5         1 KHF       0.026200
      6 C14        114.1610   124.2150   111.9450 c6         1 KHF      -0.045900
      7 C15        114.6230   123.2140   113.0310 c6         1 KHF       0.194800
      8 C16        116.6260   126.0290   110.5660 ce         1 KHF       0.524500
      9 C17        114.4290   126.5820   110.9430 c          1 KHF       0.544000
     10 C18        117.9250   126.1100   109.8240 ca         1 KHF      -0.154900
     11 C19        119.0280   125.3360   110.2470 ca         1 KHF      -0.044500
     12 C2         118.6970   119.5820   115.6460 ca         1 KHF      -0.061800
     13 C20        120.2530   125.4010   109.5620 ca         1 KHF      -0.145500
     14 C21        120.4070   126.2340   108.4450 ca         1 KHF       0.166100
     15 C22        121.9620   127.0410   106.6710 c3         1 KHF       0.525000
     16 C23        119.3110   127.0120   108.0130 ca         1 KHF      -0.145500
     17 C24        118.0830   126.9490   108.6970 ca         1 KHF      -0.044500
     18 C25        123.3220   119.4410   117.1580 c          1 KHF       0.624000
     19 C26        124.6740   118.9030   115.3550 c          1 KHF       0.565000
     20 C27        123.2130   119.0770   114.8200 c5         1 KHF       0.046400
     21 C28        122.7690   117.7300   114.1870 c3         1 KHF      -0.093100
     22 C29        123.1700   120.2010   113.7520 c3         1 KHF      -0.093100
     23 C3         120.0460   119.2040   115.5010 ca         1 KHF      -0.105000
     24 C4         121.0880   119.9450   116.0860 ca         1 KHF      -0.027000
     25 C5         120.7340   120.9980   116.9500 ca         1 KHF      -0.105000
     26 C6         119.3960   121.4040   117.1150 ca         1 KHF      -0.061800
     27 C7         119.1100   122.6010   118.0220 c3         1 KHF      -0.049300
     28 C8         118.3580   120.6990   116.4530 ca         1 KHF      -0.069300
     29 C9         116.8920   121.1320   116.6130 c3         1 KHF       0.002900
     30 F1         121.8280   128.3650   106.9150 f          1 KHF      -0.102333
     31 F2         121.1840   126.7310   105.6080 f          1 KHF      -0.102333
     32 F3         123.2430   126.8390   106.2910 f          1 KHF      -0.102333
     33 N1         114.5320   123.8070   114.3910 n3         1 KHF      -0.710500
     34 N2         116.4140   125.2860   111.6050 n2         1 KHF      -0.630900
     35 N3         115.5280   126.7510   110.1930 ns         1 KHF      -0.464400
     36 N4         122.4540   119.4680   116.0570 n          1 KHF      -0.262400
     37 N5         124.5370   119.1190   116.6830 ns         1 KHF      -0.481500
     38 O1         114.6090   123.4480   116.9260 o          1 KHF      -0.528000
     39 O2         113.8830   121.5520   115.4210 o          1 KHF      -0.528000
     40 O4         121.6430   126.2410   107.8270 os         1 KHF      -0.405100
     41 O6         125.7200   118.6410   114.7810 o          1 KHF      -0.504000
     42 S1         114.7710   122.6900   115.6820 s6         1 KHF       1.178100
     43 H1         117.0190   118.1940   115.6530 hc         1 KHF       0.046200
     44 H2         116.9680   119.3760   114.3300 hc         1 KHF       0.046200
     45 H3         118.0780   118.0110   114.2530 hc         1 KHF       0.046200
     46 H4         116.5910   121.7190   114.5310 h1         1 KHF       0.092200
     47 H5         117.1030   123.0550   115.6000 h1         1 KHF       0.092200
     48 H6         116.4060   124.8370   114.3490 h1         1 KHF       0.062450
     49 H7         115.2310   125.5070   115.4850 h1         1 KHF       0.062450
     50 H8         115.5140   126.9990   113.5310 hc         1 KHF       0.068700
     51 H9         113.8630   126.4120   113.6640 hc         1 KHF       0.068700
     52 H10        113.0920   124.4240   112.0870 hc         1 KHF       0.068700
     53 H11        114.2540   123.7510   110.9540 hc         1 KHF       0.068700
     54 H12        113.9920   122.3170   112.9540 h1         1 KHF       0.062450
     55 H13        115.6550   122.9000   112.8120 h1         1 KHF       0.062450
     56 H14        118.9410   124.6800   111.1110 ha         1 KHF       0.131000
     57 H15        121.0930   124.7990   109.9010 ha         1 KHF       0.141500
     58 H16        119.3850   127.6700   107.1540 ha         1 KHF       0.141500
     59 H17        117.2600   127.5620   108.3370 ha         1 KHF       0.131000
     60 H18        121.8610   117.8360   113.5830 hc         1 KHF       0.053867
     61 H19        123.5400   117.3400   113.5120 hc         1 KHF       0.053867
     62 H20        122.5880   116.9680   114.9550 hc         1 KHF       0.053867
     63 H21        123.5280   121.1520   114.1650 hc         1 KHF       0.053867
     64 H22        123.7990   119.9550   112.8880 hc         1 KHF       0.053867
     65 H23        122.1490   120.3630   113.3860 hc         1 KHF       0.053867
     66 H24        120.2690   118.3100   114.9330 ha         1 KHF       0.122000
     67 H25        121.5150   121.5440   117.4730 ha         1 KHF       0.122000
     68 H26        118.5780   122.2900   118.9290 hc         1 KHF       0.046200
     69 H27        120.0320   123.1000   118.3420 hc         1 KHF       0.046200
     70 H28        118.5010   123.3550   117.5110 hc         1 KHF       0.046200
     71 H29        116.7160   121.5620   117.6070 hc         1 KHF       0.067700
     72 H30        116.2210   120.2660   116.5710 hc         1 KHF       0.067700
     73 H31        115.5610   127.3680   109.3970 hn         1 KHF       0.349500
     74 H32        125.3300   119.0590   117.3020 hn         1 KHF       0.357500
     75 O5         123.0620   119.6640   118.3290 o          1 KHF      -0.531000
     76 O3         113.3440   127.1220   110.7930 o          1 KHF      -0.492000
@<TRIPOS>BOND
     1     1    12 1   
     2     1    43 1   
     3     1    44 1   
     4     1    45 1   
     5     2    29 1   
     6     2    42 1   
     7     2    46 1   
     8     2    47 1   
     9     3     4 1   
    10     3    33 1   
    11     3    48 1   
    12     3    49 1   
    13     4     5 1   
    14     4    50 1   
    15     4    51 1   
    16     5     6 1   
    17     5     9 1   
    18     5    34 1   
    19     6     7 1   
    20     6    52 1   
    21     6    53 1   
    22     7    33 1   
    23     7    54 1   
    24     7    55 1   
    25     8    10 1   
    26     8    34 2   
    27     8    35 1   
    28     9    35 1   
    29     9    76 2   
    30    10    11 ar  
    31    10    17 ar  
    32    11    13 ar  
    33    11    56 1   
    34    12    23 ar  
    35    12    28 ar  
    36    13    14 ar  
    37    13    57 1   
    38    14    16 ar  
    39    14    40 1   
    40    15    30 1   
    41    15    31 1   
    42    15    32 1   
    43    15    40 1   
    44    16    17 ar  
    45    16    58 1   
    46    17    59 1   
    47    18    36 1   
    48    18    37 1   
    49    18    75 2   
    50    19    20 1   
    51    19    37 1   
    52    19    41 2   
    53    20    21 1   
    54    20    22 1   
    55    20    36 1   
    56    21    60 1   
    57    21    61 1   
    58    21    62 1   
    59    22    63 1   
    60    22    64 1   
    61    22    65 1   
    62    23    24 ar  
    63    23    66 1   
    64    24    25 ar  
    65    24    36 1   
    66    25    26 ar  
    67    25    67 1   
    68    26    27 1   
    69    26    28 ar  
    70    27    68 1   
    71    27    69 1   
    72    27    70 1   
    73    28    29 1   
    74    29    71 1   
    75    29    72 1   
    76    33    42 1   
    77    35    73 1   
    78    37    74 1   
    79    38    42 2   
    80    39    42 2   
@<TRIPOS>SUBSTRUCTURE
     1 KHF         1 TEMP              0 ****  ****    0 ROOT
