@<TRIPOS>MOLECULE
KHG
   61    65     1     0     0
SMALL
bcc


@<TRIPOS>ATOM
      1 C12         -6.0380     2.5750     0.4120 ca         1 KHG      -0.129000
      2 C13         -5.0310     2.8670    -0.5000 ca         1 KHG      -0.128500
      3 C14         -3.9770     1.9850    -0.6820 ca         1 KHG      -0.125500
      4 C15         -1.4020     0.5760     0.1480 c6         1 KHG      -0.047400
      5 C21          5.9290    -0.4070     0.8810 c6         1 KHG      -0.088900
      6 C22          6.4650     0.5160    -0.2080 c6         1 KHG       0.151500
      7 C27         -0.3190    -1.5890     0.7670 c6         1 KHG      -0.057400
      8 C24          5.4970     1.6810    -0.4260 c6         1 KHG      -0.088900
      9 C01         -1.7250    -3.5840     1.3030 c3         1 KHG      -0.083100
     10 C02         -1.6070    -2.3450     0.4260 c6         1 KHG      -0.047000
     11 C03         -1.5710    -2.7320    -1.0540 c6         1 KHG      -0.065400
     12 C04         -1.4630    -1.4800    -1.9220 c6         1 KHG      -0.058700
     13 C05         -0.1760    -0.7270    -1.5830 c6         1 KHG      -0.063400
     14 C06         -2.8010    -1.4170     0.6650 c6         1 KHG      -0.060400
     15 C07         -2.7160    -0.1510    -0.1960 c6         1 KHG       0.002300
     16 C08         -2.6690    -0.5790    -1.6730 c6         1 KHG      -0.063400
     17 C09         -3.8900     0.7880     0.0360 ca         1 KHG      -0.063300
     18 C10         -4.9100     0.5130     0.9450 ca         1 KHG      -0.125500
     19 C11         -5.9720     1.3930     1.1320 ca         1 KHG      -0.128500
     20 C16         -0.1850    -0.3230    -0.0980 c6         1 KHG      -0.124000
     21 C17          1.0950     0.4260     0.2790 c          1 KHG       0.673100
     22 C19          3.5610     0.2770     0.3540 c6         1 KHG       0.112700
     23 C20          4.5160    -0.8910     0.5780 c6         1 KHG      -0.087900
     24 C25          4.0860     1.1970    -0.7470 c6         1 KHG      -0.087900
     25 N18          2.2400    -0.2390     0.0500 ns         1 KHG      -0.574900
     26 N23          7.8260     0.9190     0.1170 n8         1 KHG      -0.876800
     27 O26          1.0820     1.5440     0.7790 o          1 KHG      -0.605100
     28 H1          -6.8620     3.2620     0.5560 ha         1 KHG       0.130000
     29 H2          -5.0650     3.7850    -1.0730 ha         1 KHG       0.128500
     30 H3          -3.2100     2.2410    -1.4030 ha         1 KHG       0.128000
     31 H4          -1.3120     1.4800    -0.4600 hc         1 KHG       0.060200
     32 H5          -1.4330     0.9010     1.1920 hc         1 KHG       0.060200
     33 H6           6.5990    -1.2620     1.0020 hc         1 KHG       0.046200
     34 H7           5.9300     0.1320     1.8370 hc         1 KHG       0.046200
     35 H8           6.5130    -0.0600    -1.1420 h1         1 KHG       0.058700
     36 H9          -0.3190    -1.3150     1.8280 hc         1 KHG       0.044200
     37 H10          0.5390    -2.2530     0.6180 hc         1 KHG       0.044200
     38 H11          5.4800     2.2970     0.4810 hc         1 KHG       0.046200
     39 H12          5.8650     2.3220    -1.2320 hc         1 KHG       0.046200
     40 H13         -1.7590    -3.3170     2.3620 hc         1 KHG       0.035033
     41 H14         -2.6320    -4.1480     1.0720 hc         1 KHG       0.035033
     42 H15         -0.8730    -4.2510     1.1570 hc         1 KHG       0.035033
     43 H16         -0.7250    -3.4030    -1.2430 hc         1 KHG       0.040700
     44 H17         -2.4760    -3.2900    -1.3140 hc         1 KHG       0.040700
     45 H18         -1.4390    -1.7650    -2.9780 hc         1 KHG       0.051700
     46 H19          0.6800    -1.3640    -1.8220 hc         1 KHG       0.041700
     47 H20         -0.0890     0.1670    -2.2080 hc         1 KHG       0.041700
     48 H21         -3.7270    -1.9600     0.4450 hc         1 KHG       0.044700
     49 H22         -2.8380    -1.1490     1.7270 hc         1 KHG       0.044700
     50 H23         -2.6100     0.3020    -2.3180 hc         1 KHG       0.045700
     51 H24         -3.5940    -1.0990    -1.9390 hc         1 KHG       0.045700
     52 H25         -4.8950    -0.3970     1.5290 ha         1 KHG       0.128000
     53 H26         -6.7480     1.1480     1.8450 ha         1 KHG       0.128500
     54 H27          3.4920     0.8510     1.2830 h1         1 KHG       0.074700
     55 H28          4.5310    -1.5200    -0.3200 hc         1 KHG       0.046950
     56 H29          4.1490    -1.5160     1.3960 hc         1 KHG       0.046950
     57 H30          3.4100     2.0450    -0.8720 hc         1 KHG       0.046950
     58 H31          4.0890     0.6480    -1.6950 hc         1 KHG       0.046950
     59 H32          2.1950    -1.1400    -0.3990 hn         1 KHG       0.310500
     60 H33          8.1720     1.5440    -0.6020 hn         1 KHG       0.335800
     61 H34          7.8130     1.4730     0.9670 hn         1 KHG       0.335800
@<TRIPOS>BOND
     1     1     2 ar  
     2     1    19 ar  
     3     1    28 1   
     4     2     3 ar  
     5     2    29 1   
     6     3    17 ar  
     7     3    30 1   
     8     4    15 1   
     9     4    20 1   
    10     4    31 1   
    11     4    32 1   
    12     5     6 1   
    13     5    23 1   
    14     5    33 1   
    15     5    34 1   
    16     6     8 1   
    17     6    26 1   
    18     6    35 1   
    19     7    10 1   
    20     7    20 1   
    21     7    36 1   
    22     7    37 1   
    23     8    24 1   
    24     8    38 1   
    25     8    39 1   
    26     9    10 1   
    27     9    40 1   
    28     9    41 1   
    29     9    42 1   
    30    10    11 1   
    31    10    14 1   
    32    11    12 1   
    33    11    43 1   
    34    11    44 1   
    35    12    13 1   
    36    12    16 1   
    37    12    45 1   
    38    13    20 1   
    39    13    46 1   
    40    13    47 1   
    41    14    15 1   
    42    14    48 1   
    43    14    49 1   
    44    15    16 1   
    45    15    17 1   
    46    16    50 1   
    47    16    51 1   
    48    17    18 ar  
    49    18    19 ar  
    50    18    52 1   
    51    19    53 1   
    52    20    21 1   
    53    21    25 1   
    54    21    27 2   
    55    22    23 1   
    56    22    24 1   
    57    22    25 1   
    58    22    54 1   
    59    23    55 1   
    60    23    56 1   
    61    24    57 1   
    62    24    58 1   
    63    25    59 1   
    64    26    60 1   
    65    26    61 1   
@<TRIPOS>SUBSTRUCTURE
     1 KHG         1 TEMP              0 ****  ****    0 ROOT
