@<TRIPOS>MOLECULE
KHG
   61    65     1     0     0
SMALL
No Charge or Current Charge


@<TRIPOS>ATOM
      1 C12         -5.8410     2.8520     0.3520 ca         1 KHG      -0.111000
      2 C13         -4.7230     3.0690    -0.4650 ca         1 KHG      -0.110500
      3 C14         -3.7390     2.0740    -0.6010 ca         1 KHG      -0.107500
      4 C15         -1.3340     0.3550     0.3640 c6         1 KHG      -0.047400
      5 C21          5.8820     0.0220     1.0390 c6         1 KHG      -0.088900
      6 C22          6.5250     0.6290    -0.2330 c6         1 KHG       0.151500
      7 C27         -0.4800    -2.0110     0.9160 c6         1 KHG      -0.057400
      8 C24          5.6320     1.7600    -0.8040 c6         1 KHG      -0.088900
      9 C01         -2.1390    -3.9280     1.1870 c3         1 KHG      -0.083100
     10 C02         -1.8270    -2.6150     0.4150 c6         1 KHG      -0.047000
     11 C03         -1.6700    -2.9300    -1.1270 c6         1 KHG      -0.065400
     12 C04         -1.3930    -1.6040    -1.8750 c6         1 KHG      -0.058700
     13 C05         -0.0690    -0.9850    -1.3500 c6         1 KHG      -0.063400
     14 C06         -2.9690    -1.5470     0.6870 c6         1 KHG      -0.060400
     15 C07         -2.6990    -0.2340    -0.1230 c6         1 KHG       0.002300
     16 C08         -2.5640    -0.6080    -1.6390 c6         1 KHG      -0.063400
     17 C09         -3.8450     0.8340     0.0750 ca         1 KHG      -0.063300
     18 C10         -4.9950     0.6380     0.9060 ca         1 KHG      -0.107500
     19 C11         -5.9750     1.6360     1.0370 ca         1 KHG      -0.110500
     20 C16         -0.1620    -0.6640     0.1900 c6         1 KHG      -0.124000
     21 C17          1.1630    -0.0550     0.7470 c          1 KHG       0.606100
     22 C19          3.5400     0.6400     0.1850 c6         1 KHG       0.112700
     23 C20          4.4450    -0.4870     0.7530 c6         1 KHG      -0.087900
     24 C25          4.1950     1.2440    -1.0860 c6         1 KHG      -0.087900
     25 N18          2.2070     0.1160    -0.1390 ns         1 KHG      -0.507900
     26 N23          7.8810     1.1310     0.0710 n8         1 KHG      -0.987200
     27 O26          1.2720     0.2640     1.9240 o          1 KHG      -0.605100
     28 H1          -6.6010     3.6230     0.4550 ha         1 KHG       0.112000
     29 H2          -4.6160     4.0120    -0.9970 ha         1 KHG       0.110500
     30 H3          -2.8860     2.2800    -1.2410 ha         1 KHG       0.110000
     31 H4          -1.0940     1.2800    -0.1760 hc         1 KHG       0.060200
     32 H5          -1.4230     0.6410     1.4220 hc         1 KHG       0.060200
     33 H6           6.4980    -0.8070     1.4130 hc         1 KHG       0.046200
     34 H7           5.8500     0.7750     1.8380 hc         1 KHG       0.046200
     35 H8           6.6260    -0.1670    -0.9880 h1         1 KHG       0.058700
     36 H9          -0.5330    -1.8430     2.0010 hc         1 KHG       0.044200
     37 H10          0.3410    -2.7250     0.7600 hc         1 KHG       0.044200
     38 H11          5.5850     2.5980    -0.0940 hc         1 KHG       0.046200
     39 H12          6.0680     2.1550    -1.7320 hc         1 KHG       0.046200
     40 H13         -2.2280    -3.7460     2.2650 hc         1 KHG       0.035033
     41 H14         -3.0820    -4.3750     0.8490 hc         1 KHG       0.035033
     42 H15         -1.3490    -4.6750     1.0420 hc         1 KHG       0.035033
     43 H16         -0.8540    -3.6460    -1.2990 hc         1 KHG       0.040700
     44 H17         -2.5860    -3.3960    -1.5160 hc         1 KHG       0.040700
     45 H18         -1.2990    -1.8080    -2.9510 hc         1 KHG       0.051700
     46 H19          0.7560    -1.6840    -1.5480 hc         1 KHG       0.041700
     47 H20          0.1510    -0.0710    -1.9210 hc         1 KHG       0.041700
     48 H21         -3.9370    -1.9750     0.3910 hc         1 KHG       0.044700
     49 H22         -3.0320    -1.3300     1.7630 hc         1 KHG       0.044700
     50 H23         -2.3900     0.2900    -2.2470 hc         1 KHG       0.045700
     51 H24         -3.5050    -1.0420    -2.0030 hc         1 KHG       0.045700
     52 H25         -5.1370    -0.2880     1.4560 ha         1 KHG       0.110000
     53 H26         -6.8410     1.4660     1.6730 ha         1 KHG       0.110500
     54 H27          3.4340     1.4330     0.9410 h1         1 KHG       0.074700
     55 H28          4.4870    -1.3250     0.0430 hc         1 KHG       0.046950
     56 H29          4.0070    -0.8850     1.6780 hc         1 KHG       0.046950
     57 H30          3.5770     2.0700    -1.4640 hc         1 KHG       0.046950
     58 H31          4.2280     0.4900    -1.8850 hc         1 KHG       0.046950
     59 H32          2.0320    -0.1690    -1.0930 hn         1 KHG       0.310500
     60 H33          8.3330     1.4390    -0.7990 hn         1 KHG       0.391000
     61 H34          7.7970     1.9940     0.6190 hn         1 KHG       0.391000
@<TRIPOS>BOND
     1     1     2 ar  
     2     1    19 ar  
     3     1    28 1   
     4     2     3 ar  
     5     2    29 1   
     6     3    17 ar  
     7     3    30 1   
     8     4    15 1   
     9     4    20 1   
    10     4    31 1   
    11     4    32 1   
    12     5     6 1   
    13     5    23 1   
    14     5    33 1   
    15     5    34 1   
    16     6     8 1   
    17     6    26 1   
    18     6    35 1   
    19     7    10 1   
    20     7    20 1   
    21     7    36 1   
    22     7    37 1   
    23     8    24 1   
    24     8    38 1   
    25     8    39 1   
    26     9    10 1   
    27     9    40 1   
    28     9    41 1   
    29     9    42 1   
    30    10    11 1   
    31    10    14 1   
    32    11    12 1   
    33    11    43 1   
    34    11    44 1   
    35    12    13 1   
    36    12    16 1   
    37    12    45 1   
    38    13    20 1   
    39    13    46 1   
    40    13    47 1   
    41    14    15 1   
    42    14    48 1   
    43    14    49 1   
    44    15    16 1   
    45    15    17 1   
    46    16    50 1   
    47    16    51 1   
    48    17    18 ar  
    49    18    19 ar  
    50    18    52 1   
    51    19    53 1   
    52    20    21 1   
    53    21    25 1   
    54    21    27 2   
    55    22    23 1   
    56    22    24 1   
    57    22    25 1   
    58    22    54 1   
    59    23    55 1   
    60    23    56 1   
    61    24    57 1   
    62    24    58 1   
    63    25    59 1   
    64    26    60 1   
    65    26    61 1   
@<TRIPOS>SUBSTRUCTURE
     1 KHG         1 TEMP              0 ****  ****    0 ROOT
