@<TRIPOS>MOLECULE
KHH
   58    60     1     0     0
SMALL
bcc


@<TRIPOS>ATOM
      1 C7          39.5870    21.5760   237.6120 c3         1 KHH       0.225100
      2 C9          39.1970    20.9500   241.2880 c6         1 KHH      -0.094400
      3 C10         40.5380    21.4680   241.8080 c6         1 KHH       0.067700
      4 C11         41.6090    20.3590   241.8190 c3         1 KHH      -0.024300
      5 C12         41.2910    19.3270   242.7900 c1         1 KHH       0.210700
      6 C16         41.1170    22.8010   244.9720 cc         1 KHH       0.530200
      7 C18         45.1190    24.3100   247.0890 c3         1 KHH       0.147700
      8 C19         41.0250    22.6120   240.9040 c6         1 KHH       0.180600
      9 C13         39.3150    22.0970   243.9220 cd         1 KHH      -0.053300
     10 C14         39.7150    22.6410   245.1260 cc         1 KHH      -0.388900
     11 C6          38.1750    21.3480   237.1530 ca         1 KHH      -0.091300
     12 C5          37.2090    22.3390   237.2480 ca         1 KHH       0.125900
     13 C4          35.9110    22.1430   236.8380 ca         1 KHH      -0.136000
     14 C3          35.5080    20.9160   236.3070 ca         1 KHH      -0.049800
     15 C2          34.1280    20.6850   235.8670 ce         1 KHH      -0.106200
     16 C1          33.0620    21.3740   236.2720 c2         1 KHH      -0.204000
     17 C21         37.7790    20.1300   236.6170 ca         1 KHH      -0.201000
     18 C22         36.4720    19.9050   236.1920 ca         1 KHH       0.130100
     19 F1          37.5590    23.5470   237.7250 f          1 KHH      -0.130900
     20 N1          39.6660    21.7830   239.0450 n3         1 KHH      -0.707600
     21 C8          39.2650    20.6180   239.8050 c6         1 KHH       0.166800
     22 N2          41.0350    18.5120   243.5610 n1         1 KHH      -0.359800
     23 N3          40.4080    21.9670   243.1700 na         1 KHH       0.115400
     24 N4          37.6120    22.7590   246.2640 nt         1 KHH      -0.665000
     25 O1          39.4770    23.4730   247.3050 o          1 KHH      -0.639100
     26 C17         43.2820    23.5110   245.8620 c          1 KHH       0.765100
     27 O2          43.9750    23.2580   244.9080 o          1 KHH      -0.556000
     28 O3          43.7250    24.0290   247.0060 os         1 KHH      -0.426900
     29 N6          41.5210    22.3930   243.7920 nd         1 KHH      -0.550800
     30 F2          40.1930    23.7000   241.1250 f          1 KHH      -0.223300
     31 C20         40.9800    22.2370   239.4390 c6         1 KHH       0.135800
     32 O4          36.0870    18.7180   235.6810 oh         1 KHH      -0.489100
     33 H1          40.2070    20.7270   237.2810 h1         1 KHH       0.045700
     34 H2          39.9930    22.4630   237.1190 h1         1 KHH       0.045700
     35 H3          38.4280    21.7120   241.4230 hc         1 KHH       0.070200
     36 H4          38.8820    20.0670   241.8490 hc         1 KHH       0.070200
     37 H5          41.7020    19.8880   240.8410 hc         1 KHH       0.093200
     38 H6          42.5870    20.7710   242.0710 hc         1 KHH       0.093200
     39 H7          45.2790    24.7240   248.0800 h1         1 KHH       0.048367
     40 H8          45.7190    23.4070   246.9760 h1         1 KHH       0.048367
     41 H9          45.4260    25.0410   246.3410 h1         1 KHH       0.048367
     42 H10         42.0400    22.9060   241.1820 h1         1 KHH       0.088700
     43 H11         38.3390    21.8000   243.5790 h4         1 KHH       0.173000
     44 H12         35.2050    22.9610   236.9090 ha         1 KHH       0.155000
     45 H13         33.9770    19.8820   235.1550 ha         1 KHH       0.138000
     46 H14         32.0790    21.1500   235.8810 ha         1 KHH       0.115000
     47 H15         33.1190    22.1700   237.0040 ha         1 KHH       0.115000
     48 H16         38.5100    19.3320   236.5360 ha         1 KHH       0.132000
     49 H18         38.2700    20.3030   239.4910 h1         1 KHH       0.042700
     50 H19         39.9350    19.7590   239.6250 h1         1 KHH       0.042700
     51 H20         37.0290    23.0210   247.0420 hn         1 KHH       0.314000
     52 H21         37.1470    22.4090   245.4450 hn         1 KHH       0.314000
     53 H22         41.4500    23.5810   246.7980 hn         1 KHH       0.377500
     54 H23         41.7660    21.4850   239.2480 h1         1 KHH       0.049200
     55 H24         41.2550    23.1160   238.8510 h1         1 KHH       0.049200
     56 H25         36.8430    18.1270   235.5980 ho         1 KHH       0.427000
     57 N5          41.9370    23.3170   245.9490 ns         1 KHH      -0.536400
     58 C15         38.9300    22.9910   246.3120 c          1 KHH       0.732700
@<TRIPOS>BOND
     1     1    11 1   
     2     1    20 1   
     3     1    33 1   
     4     1    34 1   
     5     2     3 1   
     6     2    21 1   
     7     2    35 1   
     8     2    36 1   
     9     3     4 1   
    10     3     8 1   
    11     3    23 1   
    12     4     5 1   
    13     4    37 1   
    14     4    38 1   
    15     5    22 3   
    16     6    10 1   
    17     6    29 2   
    18     6    57 1   
    19     7    28 1   
    20     7    39 1   
    21     7    40 1   
    22     7    41 1   
    23     8    30 1   
    24     8    31 1   
    25     8    42 1   
    26     9    10 2   
    27     9    23 1   
    28     9    43 1   
    29    10    58 1   
    30    11    12 ar  
    31    11    17 ar  
    32    12    13 ar  
    33    12    19 1   
    34    13    14 ar  
    35    13    44 1   
    36    14    15 1   
    37    14    18 ar  
    38    15    16 2   
    39    15    45 1   
    40    16    46 1   
    41    16    47 1   
    42    17    18 ar  
    43    17    48 1   
    44    18    32 1   
    45    20    21 1   
    46    20    31 1   
    47    21    49 1   
    48    21    50 1   
    49    23    29 1   
    50    24    51 1   
    51    24    52 1   
    52    24    58 1   
    53    25    58 2   
    54    26    27 2   
    55    26    28 1   
    56    26    57 1   
    57    31    54 1   
    58    31    55 1   
    59    32    56 1   
    60    53    57 1   
@<TRIPOS>SUBSTRUCTURE
     1 KHH         1 TEMP              0 ****  ****    0 ROOT
