@<TRIPOS>MOLECULE
KHH
   58    60     1     0     0
SMALL
No Charge or Current Charge


@<TRIPOS>ATOM
      1 C7          39.5050    21.5800   237.5120 c3         1 KHH       0.225100
      2 C9          39.1440    21.0640   241.3120 c6         1 KHH      -0.094400
      3 C10         40.5760    21.4740   241.8160 c6         1 KHH       0.097000
      4 C11         41.5730    20.2540   241.7400 c3         1 KHH      -0.024300
      5 C12         41.2410    19.1320   242.6280 c1         1 KHH       0.299900
      6 C16         41.2640    22.8020   245.0430 cc         1 KHH       0.464900
      7 C18         45.0910    24.5760   247.3960 c3         1 KHH       0.170900
      8 C19         41.0820    22.6320   240.8870 c6         1 KHH       0.199300
      9 C13         39.4260    22.0020   244.0850 cd         1 KHH      -0.086000
     10 C14         39.9090    22.5310   245.2500 cc         1 KHH      -0.323600
     11 C6          38.0750    21.3410   237.0320 ca         1 KHH      -0.091300
     12 C5          37.1940    22.4210   236.8310 ca         1 KHH       0.161000
     13 C4          35.8790    22.1980   236.3920 ca         1 KHH      -0.118000
     14 C3          35.4130    20.8890   236.1450 ca         1 KHH      -0.049800
     15 C2          34.0110    20.6540   235.6720 ce         1 KHH      -0.156200
     16 C1          32.9790    21.5200   235.7990 c2         1 KHH      -0.304000
     17 C21         37.6210    20.0310   236.7780 ca         1 KHH      -0.183000
     18 C22         36.3050    19.8040   236.3380 ca         1 KHH       0.130100
     19 F1          37.6060    23.6910   237.0490 f          1 KHH      -0.166000
     20 N1          39.6070    21.8340   238.9710 n3         1 KHH      -0.707600
     21 C8          39.1100    20.7070   239.8050 c6         1 KHH       0.166800
     22 N2          40.9490    18.2420   243.3210 n1         1 KHH      -0.449000
     23 N3          40.5370    21.9920   243.2260 na         1 KHH       0.136800
     24 N4          37.8680    22.4410   246.4820 nt         1 KHH      -0.598000
     25 O1          39.6660    23.2520   247.5030 o          1 KHH      -0.639100
     26 C17         43.3840    23.6570   245.9800 c          1 KHH       0.649100
     27 O2          44.1440    23.5180   245.0350 o          1 KHH      -0.507000
     28 O3          43.7250    24.1660   247.1980 os         1 KHH      -0.450100
     29 N6          41.6850    22.4840   243.8400 nd         1 KHH      -0.550800
     30 F2          40.3010    23.7930   241.1130 f          1 KHH      -0.242000
     31 C20         40.9770    22.2750   239.3740 c6         1 KHH       0.135800
     32 O4          35.9020    18.5180   236.1090 oh         1 KHH      -0.528100
     33 H1          40.1230    20.7130   237.2400 h1         1 KHH       0.045700
     34 H2          39.9110    22.4370   236.9580 h1         1 KHH       0.045700
     35 H3          38.4410    21.8940   241.4710 hc         1 KHH       0.070200
     36 H4          38.7490    20.2180   241.8910 hc         1 KHH       0.070200
     37 H5          41.6510    19.8530   240.7250 hc         1 KHH       0.093200
     38 H6          42.5860    20.5810   242.0020 hc         1 KHH       0.093200
     39 H7          45.2290    24.9640   248.4130 h1         1 KHH       0.048367
     40 H8          45.7780    23.7300   247.2590 h1         1 KHH       0.048367
     41 H9          45.3690    25.3680   246.6890 h1         1 KHH       0.048367
     42 H10         42.1210    22.8940   241.1320 h1         1 KHH       0.088700
     43 H11         38.4390    21.6480   243.8120 h4         1 KHH       0.155000
     44 H12         35.2340    23.0570   236.2340 ha         1 KHH       0.137000
     45 H13         33.8380    19.6840   235.1990 ha         1 KHH       0.188000
     46 H14         31.9840    21.2670   235.4310 ha         1 KHH       0.165000
     47 H15         33.0780    22.4930   236.2790 ha         1 KHH       0.165000
     48 H16         38.2960    19.1930   236.9290 ha         1 KHH       0.114000
     49 H18         38.0700    20.4670   239.5410 h1         1 KHH       0.042700
     50 H19         39.6980    19.7970   239.6190 h1         1 KHH       0.042700
     51 H20         37.3150    22.5890   247.3120 hn         1 KHH       0.314000
     52 H21         37.4560    22.0480   245.6510 hn         1 KHH       0.314000
     53 H22         41.6150    23.5360   246.9020 hn         1 KHH       0.377500
     54 H23         41.7130    21.4950   239.1360 h1         1 KHH       0.049200
     55 H24         41.2700    23.1620   238.7940 h1         1 KHH       0.049200
     56 H25         36.6530    17.9180   236.3010 ho         1 KHH       0.466000
     57 N5          42.0610    23.3400   246.0170 ns         1 KHH      -0.469400
     58 C15         39.1700    22.7760   246.4960 c          1 KHH       0.665700
@<TRIPOS>BOND
     1     1    11 1   
     2     1    20 1   
     3     1    33 1   
     4     1    34 1   
     5     2     3 1   
     6     2    21 1   
     7     2    35 1   
     8     2    36 1   
     9     3     4 1   
    10     3     8 1   
    11     3    23 1   
    12     4     5 1   
    13     4    37 1   
    14     4    38 1   
    15     5    22 3   
    16     6    10 1   
    17     6    29 2   
    18     6    57 1   
    19     7    28 1   
    20     7    39 1   
    21     7    40 1   
    22     7    41 1   
    23     8    30 1   
    24     8    31 1   
    25     8    42 1   
    26     9    10 2   
    27     9    23 1   
    28     9    43 1   
    29    10    58 1   
    30    11    12 ar  
    31    11    17 ar  
    32    12    13 ar  
    33    12    19 1   
    34    13    14 ar  
    35    13    44 1   
    36    14    15 1   
    37    14    18 ar  
    38    15    16 2   
    39    15    45 1   
    40    16    46 1   
    41    16    47 1   
    42    17    18 ar  
    43    17    48 1   
    44    18    32 1   
    45    20    21 1   
    46    20    31 1   
    47    21    49 1   
    48    21    50 1   
    49    23    29 1   
    50    24    51 1   
    51    24    52 1   
    52    24    58 1   
    53    25    58 2   
    54    26    27 2   
    55    26    28 1   
    56    26    57 1   
    57    31    54 1   
    58    31    55 1   
    59    32    56 1   
    60    53    57 1   
@<TRIPOS>SUBSTRUCTURE
     1 KHH         1 TEMP              0 ****  ****    0 ROOT
