@<TRIPOS>MOLECULE
KHI
   51    54     1     0     0
SMALL
No Charge or Current Charge


@<TRIPOS>ATOM
      1 C1         -57.4340    76.7190   -10.2330 c5         1 KHI      -0.085700
      2 C2         -58.9360    77.0800   -10.3790 c5         1 KHI      -0.091400
      3 C3         -59.4570    76.8110    -8.9440 c5         1 KHI       0.231800
      4 N4         -58.6830    75.6030    -8.5670 nh         1 KHI      -0.802300
      5 C5         -57.5390    75.3580    -9.4860 c5         1 KHI       0.238800
      6 C6         -59.0070    74.7770    -7.4760 ca         1 KHI       0.634900
      7 C7         -60.0070    75.1150    -6.5460 ca         1 KHI      -0.242000
      8 C8         -60.2790    74.2440    -5.4810 ca         1 KHI      -0.032000
      9 C9         -59.5290    73.0640    -5.3960 ca         1 KHI      -0.235000
     10 C10        -58.5480    72.8050    -6.3660 ca         1 KHI       0.388900
     11 N11        -58.2870    73.6440    -7.3900 nb         1 KHI      -0.756000
     12 C12        -53.0370    73.9580   -16.6420 ca         1 KHI      -0.076000
     13 C13        -52.4070    75.1180   -17.1140 ca         1 KHI       0.094000
     14 C14        -52.4600    76.3040   -16.3660 ca         1 KHI      -0.061000
     15 C15        -53.7160    73.9810   -15.4110 ca         1 KHI      -0.093000
     16 C16        -53.7780    75.1620   -14.6460 ca         1 KHI       0.054000
     17 C17        -53.1550    76.3380   -15.1350 ca         1 KHI      -0.167000
     18 C18        -53.2460    77.5060   -14.3370 ca         1 KHI       0.413900
     19 N19        -53.8770    77.4910   -13.1480 nb         1 KHI      -0.294000
     20 C20        -54.4320    76.3250   -12.7650 ca         1 KHI       0.189300
     21 N21        -54.4170    75.1690   -13.4590 nb         1 KHI      -0.208000
     22 N23        -52.7040    78.7540   -14.7210 nh         1 KHI      -0.781300
     23 C25        -53.2180    79.4470   -15.9230 c3         1 KHI       0.212100
     24 C26        -51.9780    79.5900   -13.7380 c3         1 KHI       0.212100
     25 C27        -56.6560    76.6780   -11.5720 c3         1 KHI      -0.062400
     26 H28        -56.9330    77.4580    -9.5960 hc         1 KHI       0.056700
     27 H29        -59.0970    78.1180   -10.6900 hc         1 KHI       0.054200
     28 H30        -59.4380    76.4350   -11.1100 hc         1 KHI       0.054200
     29 H31        -59.2310    77.6500    -8.2710 h1         1 KHI       0.042200
     30 H32        -60.5420    76.6380    -8.9420 h1         1 KHI       0.042200
     31 H33        -57.7580    74.5330   -10.1790 h1         1 KHI       0.057200
     32 H34        -56.6070    75.1260    -8.9520 h1         1 KHI       0.057200
     33 H35        -60.5650    76.0390    -6.6390 ha         1 KHI       0.118000
     34 H36        -61.0470    74.4780    -4.7450 ha         1 KHI       0.110000
     35 H37        -59.6980    72.3550    -4.5910 ha         1 KHI       0.121000
     36 H38        -57.9510    71.8950    -6.3200 h4         1 KHI       0.011100
     37 H39        -52.9940    73.0410   -17.2230 ha         1 KHI       0.133000
     38 H40        -51.9490    77.1840   -16.7460 ha         1 KHI       0.130000
     39 H41        -54.1940    73.0750   -15.0460 ha         1 KHI       0.139000
     40 H44        -52.3980    79.6730   -16.6170 h1         1 KHI       0.045200
     41 H45        -53.9510    78.8230   -16.4510 h1         1 KHI       0.045200
     42 H46        -53.7140    80.3870   -15.6450 h1         1 KHI       0.045200
     43 H47        -51.2900    80.2760   -14.2490 h1         1 KHI       0.045200
     44 H49        -52.6820    80.1830   -13.1390 h1         1 KHI       0.045200
     45 H48        -51.3830    78.9620   -13.0620 h1         1 KHI       0.045200
     46 H51        -57.1290    75.9580   -12.2520 hc         1 KHI       0.051700
     47 H50        -56.7320    77.6560   -12.0620 hc         1 KHI       0.051700
     48 C24        -55.1590    76.3160   -11.4290 c3         1 KHI      -0.116700
     49 Cl22       -51.5440    75.0850   -18.6470 cl         1 KHI      -0.202000
     50 H43        -55.0660    75.3280   -10.9620 hc         1 KHI       0.065700
     51 H42        -54.6830    77.0240   -10.7380 hc         1 KHI       0.065700
@<TRIPOS>BOND
     1     1     2 1   
     2     1     5 1   
     3     1    25 1   
     4     1    26 1   
     5     2     3 1   
     6     2    27 1   
     7     2    28 1   
     8     3     4 1   
     9     3    29 1   
    10     3    30 1   
    11     4     5 1   
    12     4     6 1   
    13     5    31 1   
    14     5    32 1   
    15     6     7 ar  
    16     6    11 ar  
    17     7     8 ar  
    18     7    33 1   
    19     8     9 ar  
    20     8    34 1   
    21     9    10 ar  
    22     9    35 1   
    23    10    11 ar  
    24    10    36 1   
    25    12    13 ar  
    26    12    15 ar  
    27    12    37 1   
    28    13    14 ar  
    29    13    49 1   
    30    14    17 ar  
    31    14    38 1   
    32    15    16 ar  
    33    15    39 1   
    34    16    17 ar  
    35    16    21 ar  
    36    17    18 ar  
    37    18    19 ar  
    38    18    22 1   
    39    19    20 ar  
    40    20    21 ar  
    41    20    48 1   
    42    22    23 1   
    43    22    24 1   
    44    23    40 1   
    45    23    41 1   
    46    23    42 1   
    47    24    43 1   
    48    24    44 1   
    49    24    45 1   
    50    25    46 1   
    51    25    47 1   
    52    25    48 1   
    53    48    50 1   
    54    48    51 1   
@<TRIPOS>SUBSTRUCTURE
     1 KHI         1 TEMP              0 ****  ****    0 ROOT
