@<TRIPOS>MOLECULE
KHI
   51    54     1     0     0
SMALL
abcg2


@<TRIPOS>ATOM
      1 C1         -57.0140    76.7930    -9.9860 c5         1 KHI      -0.085700
      2 C2         -58.3090    77.5950    -9.8950 c5         1 KHI      -0.091400
      3 C3         -58.9550    77.0960    -8.6090 c5         1 KHI       0.231800
      4 N4         -58.4870    75.7260    -8.5120 nh         1 KHI      -0.802300
      5 C5         -57.4310    75.4200    -9.4590 c5         1 KHI       0.238800
      6 C6         -58.9600    74.8340    -7.6130 ca         1 KHI       0.634900
      7 C7         -59.9260    75.2020    -6.6500 ca         1 KHI      -0.242000
      8 C8         -60.3680    74.2460    -5.7630 ca         1 KHI      -0.032000
      9 C9         -59.8590    72.9500    -5.8250 ca         1 KHI      -0.235000
     10 C10        -58.9150    72.6910    -6.8000 ca         1 KHI       0.388900
     11 N11        -58.4720    73.5900    -7.6720 nb         1 KHI      -0.756000
     12 C12        -52.7000    73.8850   -16.5450 ca         1 KHI      -0.076000
     13 C13        -52.1220    75.0900   -16.9690 ca         1 KHI       0.094000
     14 C14        -52.3480    76.2650   -16.3020 ca         1 KHI      -0.061000
     15 C15        -53.4690    73.8740   -15.4130 ca         1 KHI      -0.093000
     16 C16        -53.6980    75.0550   -14.6780 ca         1 KHI       0.054000
     17 C17        -53.1840    76.2750   -15.1690 ca         1 KHI      -0.167000
     18 C18        -53.5000    77.4410   -14.3760 ca         1 KHI       0.413900
     19 N19        -54.0500    77.2850   -13.1870 nb         1 KHI      -0.294000
     20 C20        -54.4460    76.0640   -12.7950 ca         1 KHI       0.189300
     21 N21        -54.3590    74.9640   -13.4970 nb         1 KHI      -0.208000
     22 N23        -53.2290    78.7000   -14.7730 nh         1 KHI      -0.781300
     23 C25        -53.2470    79.1330   -16.1590 c3         1 KHI       0.212100
     24 C26        -53.3160    79.7770   -13.8050 c3         1 KHI       0.212100
     25 C27        -56.4020    76.7740   -11.3760 c3         1 KHI      -0.062400
     26 H28        -56.2870    77.2250    -9.2870 hc         1 KHI       0.056700
     27 H29        -58.1440    78.6720    -9.8850 hc         1 KHI       0.054200
     28 H30        -58.9500    77.3650   -10.7510 hc         1 KHI       0.054200
     29 H31        -58.6330    77.6890    -7.7440 h1         1 KHI       0.042200
     30 H32        -60.0460    77.1480    -8.6520 h1         1 KHI       0.042200
     31 H33        -57.7950    74.7820   -10.2740 h1         1 KHI       0.057200
     32 H34        -56.6080    74.8900    -8.9770 h1         1 KHI       0.057200
     33 H35        -60.3100    76.2110    -6.5970 ha         1 KHI       0.118000
     34 H36        -61.1070    74.5110    -5.0170 ha         1 KHI       0.110000
     35 H37        -60.1820    72.1750    -5.1440 ha         1 KHI       0.121000
     36 H38        -58.4850    71.6980    -6.8900 h4         1 KHI       0.011100
     37 H39        -52.5200    72.9720   -17.0960 ha         1 KHI       0.133000
     38 H40        -51.8550    77.1630   -16.6410 ha         1 KHI       0.130000
     39 H41        -53.8930    72.9480   -15.0470 ha         1 KHI       0.139000
     40 H44        -52.2500    79.3760   -16.5320 h1         1 KHI       0.045200
     41 H45        -53.6950    78.3840   -16.8070 h1         1 KHI       0.045200
     42 H46        -53.8610    80.0310   -16.2350 h1         1 KHI       0.045200
     43 H47        -52.7280    80.6160   -14.1740 h1         1 KHI       0.045200
     44 H49        -54.3440    80.1160   -13.6540 h1         1 KHI       0.045200
     45 H48        -52.9100    79.4690   -12.8460 h1         1 KHI       0.045200
     46 H51        -57.1200    76.3420   -12.0810 hc         1 KHI       0.051700
     47 H50        -56.2250    77.8020   -11.7000 hc         1 KHI       0.051700
     48 C24        -55.0870    75.9950   -11.4400 c3         1 KHI      -0.116700
     49 CL22       -51.0850    75.0770   -18.3580 cl         1 KHI      -0.202000
     50 H43        -55.2500    74.9480   -11.1820 hc         1 KHI       0.065700
     51 H42        -54.3910    76.4090   -10.7040 hc         1 KHI       0.065700
@<TRIPOS>BOND
     1     1     2 1   
     2     1     5 1   
     3     1    25 1   
     4     1    26 1   
     5     2     3 1   
     6     2    27 1   
     7     2    28 1   
     8     3     4 1   
     9     3    29 1   
    10     3    30 1   
    11     4     5 1   
    12     4     6 1   
    13     5    31 1   
    14     5    32 1   
    15     6     7 ar  
    16     6    11 ar  
    17     7     8 ar  
    18     7    33 1   
    19     8     9 ar  
    20     8    34 1   
    21     9    10 ar  
    22     9    35 1   
    23    10    11 ar  
    24    10    36 1   
    25    12    13 ar  
    26    12    15 ar  
    27    12    37 1   
    28    13    14 ar  
    29    13    49 1   
    30    14    17 ar  
    31    14    38 1   
    32    15    16 ar  
    33    15    39 1   
    34    16    17 ar  
    35    16    21 ar  
    36    17    18 ar  
    37    18    19 ar  
    38    18    22 1   
    39    19    20 ar  
    40    20    21 ar  
    41    20    48 1   
    42    22    23 1   
    43    22    24 1   
    44    23    40 1   
    45    23    41 1   
    46    23    42 1   
    47    24    43 1   
    48    24    44 1   
    49    24    45 1   
    50    25    46 1   
    51    25    47 1   
    52    25    48 1   
    53    48    50 1   
    54    48    51 1   
@<TRIPOS>SUBSTRUCTURE
     1 KHI         1 TEMP              0 ****  ****    0 ROOT
