@<TRIPOS>MOLECULE
KHJ
   28    29     1     0     0
SMALL
bcc


@<TRIPOS>ATOM
      1 C14          4.9700     0.0090     0.0200 c3         1 KHJ      -0.024400
      2 N2           3.5030    -0.0110     0.0080 na         1 KHJ       0.066400
      3 C12          2.8440     1.1030    -0.3390 cc         1 KHJ      -0.009550
      4 C8           1.4720     1.1380    -0.3370 cd         1 KHJ      -0.117750
      5 C4           0.7560    -0.0000     0.0220 cd         1 KHJ       0.037000
      6 C6           1.4660    -1.1430     0.3730 cd         1 KHJ      -0.117750
      7 C10          2.8410    -1.1180     0.3600 cc         1 KHJ      -0.009550
      8 C3          -0.7160     0.0080     0.0290 cc         1 KHJ       0.037000
      9 C5          -1.4380    -1.1050    -0.3900 cc         1 KHJ      -0.117750
     10 C9          -2.8110    -1.0660    -0.3760 cd         1 KHJ      -0.009550
     11 C7          -1.4190     1.1290     0.4550 cc         1 KHJ      -0.117750
     12 C11         -2.7940     1.1090     0.4520 cd         1 KHJ      -0.009550
     13 N1          -3.4630     0.0270     0.0400 na         1 KHJ       0.066400
     14 C13         -4.9300     0.0470     0.0020 c3         1 KHJ      -0.024400
     15 H1           5.3090     0.6320     0.8420 h1         1 KHJ       0.111033
     16 H2           5.3390    -1.0020     0.1490 h1         1 KHJ       0.111033
     17 H3           5.3280     0.4090    -0.9230 h1         1 KHJ       0.111033
     18 H4           3.4420     1.9580    -0.6170 h4         1 KHJ       0.222500
     19 H5           0.9810     2.0510    -0.6410 ha         1 KHJ       0.199000
     20 H6           0.9720    -2.0540     0.6780 ha         1 KHJ       0.199000
     21 H7           3.4320    -1.9790     0.6330 h4         1 KHJ       0.222500
     22 H8          -0.9530    -2.0020    -0.7470 ha         1 KHJ       0.199000
     23 H9          -3.4130    -1.9020    -0.7000 h4         1 KHJ       0.222500
     24 H10         -0.9190     2.0170     0.8140 ha         1 KHJ       0.199000
     25 H11         -3.3790     1.9540     0.7800 h4         1 KHJ       0.222500
     26 H12         -5.2540     0.3170    -1.0000 h1         1 KHJ       0.111033
     27 H13         -5.3060    -0.9360     0.2630 h1         1 KHJ       0.111033
     28 H14         -5.2950     0.7760     0.7160 h1         1 KHJ       0.111033
@<TRIPOS>BOND
     1     1     2 1   
     2     1    15 1   
     3     1    16 1   
     4     1    17 1   
     5     2     3 1   
     6     2     7 1   
     7     3     4 2   
     8     3    18 1   
     9     4     5 1   
    10     4    19 1   
    11     5     6 1   
    12     5     8 2   
    13     6     7 2   
    14     6    20 1   
    15     7    21 1   
    16     8     9 1   
    17     8    11 1   
    18     9    10 2   
    19     9    22 1   
    20    10    13 1   
    21    10    23 1   
    22    11    12 2   
    23    11    24 1   
    24    12    13 1   
    25    12    25 1   
    26    13    14 1   
    27    14    26 1   
    28    14    27 1   
    29    14    28 1   
@<TRIPOS>SUBSTRUCTURE
     1 KHJ         1 TEMP              0 ****  ****    0 ROOT
