@<TRIPOS>MOLECULE
KHJ
   28    29     1     0     0
SMALL
No Charge or Current Charge


@<TRIPOS>ATOM
      1 C14          5.0410    -0.0090     0.0450 c3         1 KHJ       0.004900
      2 N2           3.5680    -0.0020     0.0280 na         1 KHJ       0.138500
      3 C12          2.8730     1.2250    -0.0120 cc         1 KHJ      -0.042250
      4 C8           1.4900     1.2270    -0.0120 cd         1 KHJ      -0.099750
      5 C4           0.7390     0.0100     0.0110 cd         1 KHJ       0.037000
      6 C6           1.4800    -1.2140     0.0260 cd         1 KHJ      -0.099750
      7 C10          2.8620    -1.2240     0.0280 cc         1 KHJ      -0.042250
      8 C3          -0.6750     0.0160     0.0120 cc         1 KHJ       0.037000
      9 C5          -1.4520    -1.1750    -0.1670 cc         1 KHJ      -0.099750
     10 C9          -2.8340    -1.1790    -0.1660 cd         1 KHJ      -0.042250
     11 C7          -1.4400     1.2150     0.1900 cc         1 KHJ      -0.099750
     12 C11         -2.8220     1.2320     0.1960 cd         1 KHJ      -0.042250
     13 N1          -3.5380     0.0280     0.0290 na         1 KHJ       0.138500
     14 C13         -5.0100     0.0330     0.0390 c3         1 KHJ       0.004900
     15 H1           5.4170     0.8910     0.5480 h1         1 KHJ       0.111033
     16 H2           5.4090    -0.8890     0.5850 h1         1 KHJ       0.111033
     17 H3           5.4190    -0.0320    -0.9840 h1         1 KHJ       0.111033
     18 H4           3.4750     2.1250    -0.0400 h4         1 KHJ       0.204500
     19 H5           1.0230     2.2000    -0.0620 ha         1 KHJ       0.181000
     20 H6           1.0040    -2.1840     0.0650 ha         1 KHJ       0.181000
     21 H7           3.4560    -2.1300     0.0450 h4         1 KHJ       0.204500
     22 H8          -0.9770    -2.1300    -0.3450 ha         1 KHJ       0.181000
     23 H9          -3.4280    -2.0750    -0.3130 h4         1 KHJ       0.204500
     24 H10         -0.9560     2.1670     0.3600 ha         1 KHJ       0.181000
     25 H11         -3.4080     2.1340     0.3360 h4         1 KHJ       0.204500
     26 H12         -5.3820     0.1930    -0.9800 h1         1 KHJ       0.111033
     27 H13         -5.3890    -0.9240     0.4160 h1         1 KHJ       0.111033
     28 H14         -5.3800     0.8360     0.6880 h1         1 KHJ       0.111033
@<TRIPOS>BOND
     1     1     2 1   
     2     1    15 1   
     3     1    16 1   
     4     1    17 1   
     5     2     3 1   
     6     2     7 1   
     7     3     4 2   
     8     3    18 1   
     9     4     5 1   
    10     4    19 1   
    11     5     6 1   
    12     5     8 2   
    13     6     7 2   
    14     6    20 1   
    15     7    21 1   
    16     8     9 1   
    17     8    11 1   
    18     9    10 2   
    19     9    22 1   
    20    10    13 1   
    21    10    23 1   
    22    11    12 2   
    23    11    24 1   
    24    12    13 1   
    25    12    25 1   
    26    13    14 1   
    27    14    26 1   
    28    14    27 1   
    29    14    28 1   
@<TRIPOS>SUBSTRUCTURE
     1 KHJ         1 TEMP              0 ****  ****    0 ROOT
