@<TRIPOS>MOLECULE
KHL
   84    90     1     0     0
SMALL
No Charge or Current Charge


@<TRIPOS>ATOM
      1 C10         17.4750     6.0590    13.9740 c3         1 KHL       0.106000
      2 C13         19.6540     8.6700    14.1850 c5         1 KHL       0.318300
      3 C15         18.7340    10.3980    12.4720 cc         1 KHL       0.468700
      4 C17         16.1400    10.3780    12.9440 c1         1 KHL      -0.096100
      5 C20         12.8450     8.6550    12.6570 c3         1 KHL       0.091800
      6 C22         15.1610    10.1610     9.9080 c5         1 KHL       0.121300
      7 C24         17.0990     9.2870     8.9980 c5         1 KHL       0.268300
      8 C26         14.9840    10.3410     8.3750 c5         1 KHL       0.147300
      9 C02         12.5740     7.2410    12.0700 c          1 KHL       0.581100
     10 C04         13.7250     5.3910    10.7770 c3         1 KHL       0.066000
     11 C05         14.1740     4.3770    11.8520 c3         1 KHL       0.081000
     12 C07         16.6540     4.7760    11.9510 c          1 KHL       0.639100
     13 C11         18.8180     6.5030    14.6090 c5         1 KHL       0.147300
     14 C16         17.3430    10.3890    12.7660 cg         1 KHL      -0.114200
     15 C18         14.6770    10.3240    13.0670 c3         1 KHL       0.272900
     16 C25         16.4790    10.2630     7.9190 c5         1 KHL       0.137300
     17 C30         17.2020     7.2550     7.4560 cc         1 KHL       0.400700
     18 C32         18.8240     6.1860     8.3820 ca         1 KHL      -0.079600
     19 C33         18.6580     7.3160     9.1410 ca         1 KHL       0.142500
     20 C35         20.3650     6.6550    10.5110 ca         1 KHL       0.180900
     21 C37         19.8310     5.2740     8.7640 ca         1 KHL       0.461900
     22 C40         20.5690    10.8520    11.4550 ca         1 KHL      -0.100600
     23 C41         20.9060     9.9270    12.4100 ca         1 KHL       0.158500
     24 C43         23.0770     9.9830    11.6880 ca         1 KHL       0.187900
     25 C45         21.5820    11.3300    10.6020 ca         1 KHL       0.451900
     26 C47         18.5350     8.7870    15.2800 c5         1 KHL       0.084300
     27 C48         18.6600     7.3720    15.9050 c5         1 KHL       0.119300
     28 N03         13.6170     6.7500    11.3190 ns         1 KHL      -0.496900
     29 N06         15.4090     4.7980    12.5240 ns         1 KHL      -0.499900
     30 N09         17.6390     5.3710    12.6860 ns         1 KHL      -0.518900
     31 N14         19.7490     9.6320    13.0770 na         1 KHL      -0.273300
     32 N19         14.0580     9.3600    12.1140 n3         1 KHL      -0.758600
     33 N29         17.6350     8.0030     8.5560 na         1 KHL      -0.302300
     34 N31         17.9210     6.1260     7.3140 nd         1 KHL      -0.540100
     35 N34         19.4230     7.5820    10.2170 nb         1 KHL      -0.230000
     36 N36         20.6080     5.5050     9.8360 nb         1 KHL      -0.293000
     37 N38         20.0820     4.1250     8.0790 nv         1 KHL      -1.059900
     38 N39         19.2110    11.1680    11.4790 nd         1 KHL      -0.519100
     39 N42         22.1670     9.4710    12.5510 nb         1 KHL      -0.217000
     40 N44         22.8460    10.8940    10.7120 nb         1 KHL      -0.298000
     41 N46         21.3440    12.2380     9.6190 nv         1 KHL      -1.064900
     42 O01         11.5430     6.6080    12.2620 o          1 KHL      -0.621100
     43 O08         16.8860     4.2690    10.8700 o          1 KHL      -0.644100
     44 O12         19.5250     7.3350    13.6510 os         1 KHL      -0.453000
     45 O23         16.0530     9.0330     9.9560 os         1 KHL      -0.451000
     46 O27         14.3870    11.5950     7.9950 oh         1 KHL      -0.678000
     47 O28         17.0480    11.5790     7.9750 oh         1 KHL      -0.685000
     48 O49         19.8010     7.3160    16.7710 oh         1 KHL      -0.708000
     49 O50         18.7660     9.8160    16.2660 oh         1 KHL      -0.703000
     50 H1          16.8370     6.9390    13.8160 h1         1 KHL       0.043700
     51 H2          16.9660     5.3860    14.6750 h1         1 KHL       0.043700
     52 H3          20.6230     8.7380    14.6970 h2         1 KHL       0.118700
     53 H4          11.9430     9.2630    12.5060 h1         1 KHL       0.063700
     54 H5          12.9560     8.4950    13.7370 h1         1 KHL       0.063700
     55 H6          13.2640    10.7940    10.7410 h1         1 KHL       0.047200
     56 H7          13.2850     9.1460    10.1350 h1         1 KHL       0.047200
     57 H8          15.6630    11.0360    10.3440 h1         1 KHL       0.088700
     58 H9          17.9300     9.8010     9.4980 h2         1 KHL       0.111700
     59 H10         14.4150     9.4990     7.9540 h1         1 KHL       0.041700
     60 H11         12.7560     5.0830    10.3620 h1         1 KHL       0.072200
     61 H12         14.4560     5.4000     9.9580 h1         1 KHL       0.072200
     62 H13         13.3820     4.2740    12.6060 h1         1 KHL       0.068700
     63 H14         14.3280     3.3930    11.3880 h1         1 KHL       0.068700
     64 H15         19.4140     5.6030    14.8130 h1         1 KHL       0.100700
     65 H16         14.2630    11.3320    12.9270 h1         1 KHL       0.054700
     66 H17         14.4610    10.0310    14.1040 h1         1 KHL       0.054700
     67 H18         16.5590     9.8590     6.9010 h1         1 KHL       0.063700
     68 H19         16.3850     7.5730     6.8200 h5         1 KHL       0.061800
     69 H20         20.9930     6.8550    11.3770 h5         1 KHL       0.049100
     70 H21         24.0990     9.6220    11.7880 h5         1 KHL       0.050100
     71 H22         17.5350     8.8870    14.8430 h1         1 KHL       0.065700
     72 H23         17.7500     7.1010    16.4600 h1         1 KHL       0.056700
     73 H24         14.4090     7.3850    11.2420 hn         1 KHL       0.352500
     74 H25         15.3350     5.2440    13.4280 hn         1 KHL       0.293500
     75 H26         18.5500     5.3990    12.2470 hn         1 KHL       0.346500
     76 H28         20.5910     3.3900     8.5610 hn         1 KHL       0.505500
     77 H29         19.3700     3.8230     7.4180 hn         1 KHL       0.505500
     78 H30         22.0240    12.3160     8.8680 hn         1 KHL       0.511000
     79 H31         20.3710    12.4030     9.3710 hn         1 KHL       0.511000
     80 H32         13.4140    11.4490     7.9170 ho         1 KHL       0.503000
     81 H33         16.2520    12.1650     7.9120 ho         1 KHL       0.510000
     82 H34         19.8350     8.2200    17.1720 ho         1 KHL       0.526000
     83 H35         18.4520    10.6730    15.8890 ho         1 KHL       0.517000
     84 C21         13.8640     9.8750    10.7180 c3         1 KHL       0.182800
@<TRIPOS>BOND
     1     1    13 1   
     2     1    30 1   
     3     1    50 1   
     4     1    51 1   
     5     2    26 1   
     6     2    31 1   
     7     2    44 1   
     8     2    52 1   
     9     3    14 1   
    10     3    31 1   
    11     3    38 2   
    12     4    14 3   
    13     4    15 1   
    14     5     9 1   
    15     5    32 1   
    16     5    53 1   
    17     5    54 1   
    18     6     8 1   
    19     6    45 1   
    20     6    57 1   
    21     6    84 1   
    22     7    16 1   
    23     7    33 1   
    24     7    45 1   
    25     7    58 1   
    26     8    16 1   
    27     8    46 1   
    28     8    59 1   
    29     9    28 1   
    30     9    42 2   
    31    10    11 1   
    32    10    28 1   
    33    10    60 1   
    34    10    61 1   
    35    11    29 1   
    36    11    62 1   
    37    11    63 1   
    38    12    29 1   
    39    12    30 1   
    40    12    43 2   
    41    13    27 1   
    42    13    44 1   
    43    13    64 1   
    44    15    32 1   
    45    15    65 1   
    46    15    66 1   
    47    16    47 1   
    48    16    67 1   
    49    17    33 1   
    50    17    34 2   
    51    17    68 1   
    52    18    19 ar  
    53    18    21 ar  
    54    18    34 1   
    55    19    33 1   
    56    19    35 ar  
    57    20    35 ar  
    58    20    36 ar  
    59    20    69 1   
    60    21    36 ar  
    61    21    37 1   
    62    22    23 ar  
    63    22    25 ar  
    64    22    38 1   
    65    23    31 1   
    66    23    39 ar  
    67    24    39 ar  
    68    24    40 ar  
    69    24    70 1   
    70    25    40 ar  
    71    25    41 1   
    72    26    27 1   
    73    26    49 1   
    74    26    71 1   
    75    27    48 1   
    76    27    72 1   
    77    28    73 1   
    78    29    74 1   
    79    30    75 1   
    80    32    84 1   
    81    37    76 1   
    82    37    77 1   
    83    41    78 1   
    84    41    79 1   
    85    46    80 1   
    86    47    81 1   
    87    48    82 1   
    88    49    83 1   
    89    55    84 1   
    90    56    84 1   
@<TRIPOS>SUBSTRUCTURE
     1 KHL         1 TEMP              0 ****  ****    0 ROOT
