@<TRIPOS>MOLECULE
KHL
   84    90     1     0     0
SMALL
abcg2


@<TRIPOS>ATOM
      1 C10         17.4100     6.3810    13.8580 c3         1 KHL       0.106000
      2 C13         19.7330     8.9560    14.1300 c5         1 KHL       0.318300
      3 C15         18.6330    10.6980    12.5910 cc         1 KHL       0.468700
      4 C17         16.0870    10.3150    13.0070 c1         1 KHL      -0.096100
      5 C20         12.8650     8.6030    12.4220 c3         1 KHL       0.091800
      6 C22         15.4000    10.0110    10.0660 c5         1 KHL       0.121300
      7 C24         17.1540     8.7960     9.1830 c5         1 KHL       0.268300
      8 C26         15.3720    10.2950     8.5600 c5         1 KHL       0.147300
      9 C02         12.7100     7.2140    11.8050 c          1 KHL       0.581100
     10 C04         13.9120     5.3800    10.6800 c3         1 KHL       0.066000
     11 C05         14.3140     4.3760    11.7690 c3         1 KHL       0.081000
     12 C07         16.6970     4.9130    11.9560 c          1 KHL       0.639100
     13 C11         18.7350     6.8540    14.4190 c5         1 KHL       0.147300
     14 C16         17.2770    10.4360    12.8780 cg         1 KHL      -0.114200
     15 C18         14.6400    10.1410    13.1020 c3         1 KHL       0.272900
     16 C25         16.7910     9.8890     8.1370 c5         1 KHL       0.137300
     17 C30         16.5220     6.7660     7.8040 cc         1 KHL       0.400700
     18 C32         18.1940     5.4940     8.1800 ca         1 KHL      -0.079600
     19 C33         18.4280     6.6540     8.9100 ca         1 KHL       0.142500
     20 C35         20.3230     5.8610     9.7290 ca         1 KHL       0.180900
     21 C37         19.1530     4.4710     8.2980 ca         1 KHL       0.461900
     22 C40         20.3960    11.5250    11.6950 ca         1 KHL      -0.100600
     23 C41         20.8460    10.5760    12.6090 ca         1 KHL       0.158500
     24 C43         22.9610    10.9680    12.0970 ca         1 KHL       0.187900
     25 C45         21.3810    12.2080    10.9500 ca         1 KHL       0.451900
     26 C47         18.7980     9.0800    15.3320 c5         1 KHL       0.084300
     27 C48         18.6260     7.6090    15.7450 c5         1 KHL       0.119300
     28 N03         13.8000     6.7280    11.2020 ns         1 KHL      -0.496900
     29 N06         15.4640     4.8190    12.5420 ns         1 KHL      -0.499900
     30 N09         17.6350     5.6330    12.6340 ns         1 KHL      -0.518900
     31 N14         19.7140    10.0500    13.1920 na         1 KHL      -0.273300
     32 N19         14.1070     9.2650    12.0590 n3         1 KHL      -0.758600
     33 N29         17.3500     7.4730     8.6520 na         1 KHL      -0.302300
     34 N31         16.9910     5.5820     7.4990 nd         1 KHL      -0.540100
     35 N34         19.4770     6.8900     9.7040 nb         1 KHL      -0.230000
     36 N36         20.2240     4.6950     9.0840 nb         1 KHL      -0.293000
     37 N38         19.0500     3.2960     7.6560 nv         1 KHL      -1.059900
     38 N39         19.0240    11.5910    11.6990 nd         1 KHL      -0.519100
     39 N42         22.1210    10.2570    12.8490 nb         1 KHL      -0.217000
     40 N44         22.6710    11.9000    11.1830 nb         1 KHL      -0.298000
     41 N46         21.0830    13.1390    10.0350 nv         1 KHL      -1.064900
     42 O01         11.6390     6.6100    11.8990 o          1 KHL      -0.621100
     43 O08         16.9630     4.3500    10.8880 o          1 KHL      -0.644100
     44 O12         19.3440     7.7630    13.4690 os         1 KHL      -0.453000
     45 O23         16.0920     8.7580    10.1310 os         1 KHL      -0.451000
     46 O27         15.0740    11.6290     8.2080 oh         1 KHL      -0.678000
     47 O28         17.6500    11.0100     8.2580 oh         1 KHL      -0.685000
     48 O49         19.6930     7.2060    16.5920 oh         1 KHL      -0.708000
     49 O50         19.4010     9.8770    16.3340 oh         1 KHL      -0.703000
     50 H1          16.7520     7.2440    13.6950 h1         1 KHL       0.043700
     51 H2          16.9450     5.7320    14.6050 h1         1 KHL       0.043700
     52 H3          20.7650     8.8880    14.4810 h2         1 KHL       0.118700
     53 H4          11.9690     9.1820    12.1630 h1         1 KHL       0.063700
     54 H5          12.8410     8.4500    13.5030 h1         1 KHL       0.063700
     55 H6          13.5640    10.8590    10.7530 h1         1 KHL       0.047200
     56 H7          13.4280     9.2230    10.1000 h1         1 KHL       0.047200
     57 H8          15.9920    10.7900    10.5520 h1         1 KHL       0.088700
     58 H9          18.0880     9.0730     9.6740 h2         1 KHL       0.111700
     59 H10         14.6660     9.6010     8.0910 h1         1 KHL       0.041700
     60 H11         12.9610     5.0810    10.2400 h1         1 KHL       0.072200
     61 H12         14.6680     5.3930     9.8960 h1         1 KHL       0.072200
     62 H13         13.4910     4.2380    12.4690 h1         1 KHL       0.068700
     63 H14         14.5330     3.4140    11.3070 h1         1 KHL       0.068700
     64 H15         19.4020     6.0000    14.5500 h1         1 KHL       0.100700
     65 H16         14.1640    11.1350    13.0890 h1         1 KHL       0.054700
     66 H17         14.4130     9.6960    14.0730 h1         1 KHL       0.054700
     67 H18         16.8220     9.4930     7.1210 h1         1 KHL       0.063700
     68 H19         15.5890     7.1810     7.4550 h5         1 KHL       0.061800
     69 H20         21.2030     5.9810    10.3530 h5         1 KHL       0.049100
     70 H21         24.0170    10.7640    12.2380 h5         1 KHL       0.050100
     71 H22         17.8370     9.4890    15.0300 h1         1 KHL       0.065700
     72 H23         17.6630     7.4400    16.2340 h1         1 KHL       0.056700
     73 H24         14.6250     7.3150    11.2220 hn         1 KHL       0.352500
     74 H25         15.2520     5.4710    13.2810 hn         1 KHL       0.293500
     75 H26         18.4640     5.8410    12.0980 hn         1 KHL       0.346500
     76 H28         19.7120     2.5640     7.8540 hn         1 KHL       0.505500
     77 H29         18.2140     3.0670     7.1460 hn         1 KHL       0.505500
     78 H30         21.8200    13.5750     9.5040 hn         1 KHL       0.511000
     79 H31         20.1260    13.3590     9.8170 hn         1 KHL       0.511000
     80 H32         14.1150    11.7330     8.1970 ho         1 KHL       0.503000
     81 H33         18.5240    10.7650     7.9300 ho         1 KHL       0.510000
     82 H34         19.8860     7.9580    17.1740 ho         1 KHL       0.526000
     83 H35         18.7090    10.3220    16.8400 ho         1 KHL       0.517000
     84 C21         14.0440     9.8690    10.7260 c3         1 KHL       0.182800
@<TRIPOS>BOND
     1     1    13 1   
     2     1    30 1   
     3     1    50 1   
     4     1    51 1   
     5     2    26 1   
     6     2    31 1   
     7     2    44 1   
     8     2    52 1   
     9     3    14 1   
    10     3    31 1   
    11     3    38 2   
    12     4    14 3   
    13     4    15 1   
    14     5     9 1   
    15     5    32 1   
    16     5    53 1   
    17     5    54 1   
    18     6     8 1   
    19     6    45 1   
    20     6    57 1   
    21     6    84 1   
    22     7    16 1   
    23     7    33 1   
    24     7    45 1   
    25     7    58 1   
    26     8    16 1   
    27     8    46 1   
    28     8    59 1   
    29     9    28 1   
    30     9    42 2   
    31    10    11 1   
    32    10    28 1   
    33    10    60 1   
    34    10    61 1   
    35    11    29 1   
    36    11    62 1   
    37    11    63 1   
    38    12    29 1   
    39    12    30 1   
    40    12    43 2   
    41    13    27 1   
    42    13    44 1   
    43    13    64 1   
    44    15    32 1   
    45    15    65 1   
    46    15    66 1   
    47    16    47 1   
    48    16    67 1   
    49    17    33 1   
    50    17    34 2   
    51    17    68 1   
    52    18    19 ar  
    53    18    21 ar  
    54    18    34 1   
    55    19    33 1   
    56    19    35 ar  
    57    20    35 ar  
    58    20    36 ar  
    59    20    69 1   
    60    21    36 ar  
    61    21    37 1   
    62    22    23 ar  
    63    22    25 ar  
    64    22    38 1   
    65    23    31 1   
    66    23    39 ar  
    67    24    39 ar  
    68    24    40 ar  
    69    24    70 1   
    70    25    40 ar  
    71    25    41 1   
    72    26    27 1   
    73    26    49 1   
    74    26    71 1   
    75    27    48 1   
    76    27    72 1   
    77    28    73 1   
    78    29    74 1   
    79    30    75 1   
    80    32    84 1   
    81    37    76 1   
    82    37    77 1   
    83    41    78 1   
    84    41    79 1   
    85    46    80 1   
    86    47    81 1   
    87    48    82 1   
    88    49    83 1   
    89    55    84 1   
    90    56    84 1   
@<TRIPOS>SUBSTRUCTURE
     1 KHL         1 TEMP              0 ****  ****    0 ROOT
