@<TRIPOS>MOLECULE
KHM
   47    50     1     0     0
SMALL
No Charge or Current Charge


@<TRIPOS>ATOM
      1 C10         -4.1110    -2.0860     0.6030 ca         1 KHM      -0.074500
      2 C13          0.2290     0.7230     0.0370 cc         1 KHM      -0.320800
      3 C17          3.5690    -1.9240    -1.5690 c6         1 KHM      -0.084400
      4 C20          5.3690     0.3190    -0.7960 c6         1 KHM      -0.054400
      5 C21          4.8180    -0.6790     0.2680 c6         1 KHM      -0.207700
      6 C22          4.7800    -0.0570     1.6830 c          1 KHM       0.717000
      7 C26          0.7130     2.0410     0.1200 cc         1 KHM       0.429500
      8 C02         -2.7100     2.6520     0.2900 cc         1 KHM       0.209100
      9 C03         -3.6510     1.6410     0.2440 cd         1 KHM      -0.341000
     10 C04         -3.2860     0.2440     0.1110 cd         1 KHM       0.466500
     11 C05         -4.3400    -0.7950     0.0680 ca         1 KHM      -0.147500
     12 C06         -5.5710    -0.5450    -0.5840 ca         1 KHM      -0.074500
     13 C07         -6.5580    -1.5440    -0.6600 ca         1 KHM      -0.125000
     14 C08         -6.3260    -2.8100    -0.1010 ca         1 KHM      -0.103000
     15 C09         -5.1000    -3.0810     0.5260 ca         1 KHM      -0.125000
     16 N11         -1.9780    -0.2210     0.0390 nd         1 KHM      -0.636000
     17 C12         -1.1210     0.8550     0.0930 cd         1 KHM       0.438500
     18 N15          2.3910    -0.2660    -0.1160 ns         1 KHM      -0.485900
     19 C16          3.4450    -1.2860    -0.1550 c6         1 KHM       0.128700
     20 C18          4.0980    -0.9230    -2.6270 c6         1 KHM      -0.065400
     21 C19          5.4610    -0.3340    -2.1950 c6         1 KHM      -0.076400
     22 O23          4.1340     0.9680     1.8530 o          1 KHM      -0.730000
     23 O24          5.4460    -0.5880     2.5590 o          1 KHM      -0.730000
     24 O25          0.5860    -1.6320    -0.1440 o          1 KHM      -0.637100
     25 N28         -1.3930     2.2130     0.2050 na         1 KHM       0.080900
     26 N27         -0.2210     2.9740     0.2220 nd         1 KHM      -0.571100
     27 H101        -3.1670    -2.3190     1.0920 ha         1 KHM       0.130500
     28 H172         4.2480    -2.7860    -1.5170 hc         1 KHM       0.038700
     29 H171         2.5990    -2.3250    -1.8920 hc         1 KHM       0.038700
     30 H201         4.7310     1.2120    -0.8510 hc         1 KHM       0.039200
     31 H202         6.3640     0.6720    -0.4910 hc         1 KHM       0.039200
     32 H211         5.5190    -1.5240     0.3260 hc         1 KHM       0.043700
     33 H261         1.7460     2.3630     0.1080 h4         1 KHM       0.067800
     34 H011        -3.9620     4.0450     0.4600 ho         1 KHM       0.485000
     35 H031        -4.6990     1.9020     0.3220 ha         1 KHM       0.127000
     36 H061        -5.7660     0.4200    -1.0460 ha         1 KHM       0.130500
     37 H071        -7.5020    -1.3360    -1.1590 ha         1 KHM       0.110000
     38 H081        -7.0910    -3.5820    -0.1620 ha         1 KHM       0.105000
     39 H091        -4.9140    -4.0650     0.9520 ha         1 KHM       0.110000
     40 H151         2.6950     0.6860     0.0250 hn         1 KHM       0.368500
     41 H161         3.1740    -2.0730     0.5650 h1         1 KHM       0.049700
     42 H181         4.2030    -1.4280    -3.5970 hc         1 KHM       0.024700
     43 H182         3.3710    -0.1120    -2.7750 hc         1 KHM       0.024700
     44 H192         5.7970     0.4080    -2.9320 hc         1 KHM       0.018200
     45 H191         6.2200    -1.1280    -2.1830 hc         1 KHM       0.018200
     46 O01         -2.9860     3.9650     0.4140 oh         1 KHM      -0.490100
     47 C14          1.0360    -0.4980    -0.0820 c          1 KHM       0.638300
@<TRIPOS>BOND
     1     1    11 ar  
     2     1    15 ar  
     3     1    27 1   
     4     2     7 1   
     5     2    17 2   
     6     2    47 1   
     7     3    19 1   
     8     3    20 1   
     9     3    28 1   
    10     3    29 1   
    11     4     5 1   
    12     4    21 1   
    13     4    30 1   
    14     4    31 1   
    15     5     6 1   
    16     5    19 1   
    17     5    32 1   
    18     6    22 1   
    19     6    23 1   
    20     7    26 2   
    21     7    33 1   
    22     8     9 2   
    23     8    25 1   
    24     8    46 1   
    25     9    10 1   
    26     9    35 1   
    27    10    11 1   
    28    10    16 2   
    29    11    12 ar  
    30    12    13 ar  
    31    12    36 1   
    32    13    14 ar  
    33    13    37 1   
    34    14    15 ar  
    35    14    38 1   
    36    15    39 1   
    37    16    17 1   
    38    17    25 1   
    39    18    19 1   
    40    18    40 1   
    41    18    47 1   
    42    19    41 1   
    43    20    21 1   
    44    20    42 1   
    45    20    43 1   
    46    21    44 1   
    47    21    45 1   
    48    24    47 2   
    49    25    26 1   
    50    34    46 1   
@<TRIPOS>SUBSTRUCTURE
     1 KHM         1 TEMP              0 ****  ****    0 ROOT
