@<TRIPOS>MOLECULE
KHM
   47    50     1     0     0
SMALL
bcc


@<TRIPOS>ATOM
      1 C10         -3.9650    -2.1030     0.3510 ca         1 KHM      -0.092500
      2 C13          0.2570     0.7630    -0.3370 cc         1 KHM      -0.320800
      3 C17          3.6540    -1.8440    -1.6750 c6         1 KHM      -0.084400
      4 C20          5.3450     0.2570    -0.5310 c6         1 KHM      -0.054400
      5 C21          4.6810    -0.7900     0.3690 c6         1 KHM      -0.207700
      6 C22          4.4440    -0.2390     1.7880 c          1 KHM       0.927600
      7 C26          0.6550     2.1090    -0.3000 cc         1 KHM       0.429500
      8 C02         -2.6990     2.5860     0.0810 cc         1 KHM       0.259800
      9 C03         -3.6820     1.6340     0.1380 cd         1 KHM      -0.424300
     10 C04         -3.3230     0.2730     0.0160 cd         1 KHM       0.531800
     11 C05         -4.3500    -0.7870     0.0860 ca         1 KHM      -0.147500
     12 C06         -5.7040    -0.5110    -0.1080 ca         1 KHM      -0.092500
     13 C07         -6.6490    -1.5230    -0.0300 ca         1 KHM      -0.143000
     14 C08         -6.2570    -2.8250     0.2450 ca         1 KHM      -0.121000
     15 C09         -4.9100    -3.1120     0.4350 ca         1 KHM      -0.143000
     16 N11         -2.0770    -0.1200    -0.1470 nd         1 KHM      -0.636000
     17 C12         -1.1310     0.8130    -0.2000 cd         1 KHM       0.438500
     18 N15          2.3910    -0.2570    -0.2450 ns         1 KHM      -0.552900
     19 C16          3.3780    -1.3230    -0.2620 c6         1 KHM       0.128700
     20 C18          4.3150    -0.7980    -2.5640 c6         1 KHM      -0.065400
     21 C19          5.6020    -0.2810    -1.9330 c6         1 KHM      -0.076400
     22 O23          3.7950     0.8370     1.8620 o          1 KHM      -0.835300
     23 O24          4.8970    -0.8800     2.7510 o          1 KHM      -0.835300
     24 O25          0.6020    -1.5120    -0.8630 o          1 KHM      -0.637100
     25 N28         -1.4270     2.1610    -0.0920 na         1 KHM       0.030200
     26 N27         -0.3480     2.9520    -0.1590 nd         1 KHM      -0.571100
     27 H101        -2.9170    -2.3290     0.4990 ha         1 KHM       0.148500
     28 H172         4.3130    -2.7130    -1.5840 hc         1 KHM       0.038700
     29 H171         2.7280    -2.2060    -2.1240 hc         1 KHM       0.038700
     30 H201         4.7180     1.1510    -0.5930 hc         1 KHM       0.039200
     31 H202         6.2870     0.5770    -0.0750 hc         1 KHM       0.039200
     32 H211         5.3540    -1.6510     0.4410 hc         1 KHM       0.043700
     33 H261         1.6570     2.5020    -0.3950 h4         1 KHM       0.067800
     34 H011        -3.7660     4.1260     0.3090 ho         1 KHM       0.446000
     35 H031        -4.7020     1.9440     0.3060 ha         1 KHM       0.145000
     36 H061        -6.0370     0.4920    -0.3420 ha         1 KHM       0.148500
     37 H071        -7.6940    -1.2910    -0.1880 ha         1 KHM       0.128000
     38 H081        -6.9960    -3.6130     0.3100 ha         1 KHM       0.123000
     39 H091        -4.5960    -4.1240     0.6500 ha         1 KHM       0.128000
     40 H151         2.6630     0.5250     0.3480 hn         1 KHM       0.368500
     41 H161         3.0170    -2.1610     0.3470 h1         1 KHM       0.049700
     42 H181         4.5170    -1.2280    -3.5480 hc         1 KHM       0.024700
     43 H182         3.6250     0.0360    -2.7260 hc         1 KHM       0.024700
     44 H192         6.0500     0.4950    -2.5580 hc         1 KHM       0.018200
     45 H191         6.3320    -1.0970    -1.8810 hc         1 KHM       0.018200
     46 O01         -2.8380     3.8860     0.1840 oh         1 KHM      -0.451100
     47 C14          1.0850    -0.4430    -0.5040 c          1 KHM       0.705300
@<TRIPOS>BOND
     1     1    11 ar  
     2     1    15 ar  
     3     1    27 1   
     4     2     7 1   
     5     2    17 2   
     6     2    47 1   
     7     3    19 1   
     8     3    20 1   
     9     3    28 1   
    10     3    29 1   
    11     4     5 1   
    12     4    21 1   
    13     4    30 1   
    14     4    31 1   
    15     5     6 1   
    16     5    19 1   
    17     5    32 1   
    18     6    22 1   
    19     6    23 1   
    20     7    26 2   
    21     7    33 1   
    22     8     9 2   
    23     8    25 1   
    24     8    46 1   
    25     9    10 1   
    26     9    35 1   
    27    10    11 1   
    28    10    16 2   
    29    11    12 ar  
    30    12    13 ar  
    31    12    36 1   
    32    13    14 ar  
    33    13    37 1   
    34    14    15 ar  
    35    14    38 1   
    36    15    39 1   
    37    16    17 1   
    38    17    25 1   
    39    18    19 1   
    40    18    40 1   
    41    18    47 1   
    42    19    41 1   
    43    20    21 1   
    44    20    42 1   
    45    20    43 1   
    46    21    44 1   
    47    21    45 1   
    48    24    47 2   
    49    25    26 1   
    50    34    46 1   
@<TRIPOS>SUBSTRUCTURE
     1 KHM         1 TEMP              0 ****  ****    0 ROOT
