@<TRIPOS>MOLECULE
KHO
   37    38     1     0     0
SMALL
bcc


@<TRIPOS>ATOM
      1 C1          -0.8010    -0.0180    -3.6250 c6         1 KHO       0.315900
      2 O4          -1.8470    -0.6050    -4.3050 oh         1 KHO      -0.581800
      3 C2          -0.8570    -0.4860    -2.1700 c6         1 KHO       0.108100
      4 O2          -2.0240    -0.0000    -1.5440 oh         1 KHO      -0.617800
      5 C3           0.3510     0.0290    -1.3970 c6         1 KHO       0.169100
      6 O1           0.3870    -0.5590    -0.1180 os         1 KHO      -0.408600
      7 C6           0.2040     0.2620     0.9920 c5         1 KHO       0.326900
      8 C7          -1.1840     0.1240     1.6220 c5         1 KHO       0.057100
      9 C8          -0.8870     0.3960     3.0840 c5         1 KHO       0.118100
     10 O3          -1.8080    -0.1230     4.0020 oh         1 KHO      -0.582800
     11 O8          -2.1410     0.9990     1.1040 oh         1 KHO      -0.601800
     12 O7           1.1120    -0.1430     1.9800 os         1 KHO      -0.384600
     13 C4           0.4640    -0.2980     3.2390 c5         1 KHO       0.144100
     14 C5           1.3070     0.2940     4.3430 c3         1 KHO       0.140400
     15 O5           2.4860    -0.4610     4.4810 oh         1 KHO      -0.582800
     16 C9           1.6390    -0.2960    -2.1390 c6         1 KHO       0.103100
     17 O6           2.6910     0.3600    -1.4780 oh         1 KHO      -0.578800
     18 C10          1.5240     0.1660    -3.5910 c6         1 KHO       0.103400
     19 O9           0.4080    -0.4260    -4.2180 os         1 KHO      -0.425600
     20 H1          -0.8650     1.0850    -3.6510 h2         1 KHO       0.029700
     21 HO4         -2.0590    -0.0840    -5.0860 ho         1 KHO       0.425000
     22 H2          -0.8370    -1.5850    -2.1620 h1         1 KHO       0.075700
     23 HO2         -2.7830    -0.4940    -1.8710 ho         1 KHO       0.431000
     24 H3           0.2720     1.1250    -1.3200 h1         1 KHO       0.060700
     25 H7           0.3890     1.3110     0.7140 h2         1 KHO       0.051700
     26 H8          -1.4960    -0.9290     1.5260 h1         1 KHO       0.065700
     27 H9          -0.7550     1.4810     3.2210 h1         1 KHO       0.049700
     28 H6          -2.6010     0.4210     3.9780 ho         1 KHO       0.420000
     29 H5          -2.2770     0.7530     0.1750 ho         1 KHO       0.439000
     30 H4           0.2970    -1.3650     3.4420 h1         1 KHO       0.081700
     31 H5'1         0.7070     0.2880     5.2630 h1         1 KHO       0.028200
     32 H5'2         1.5180     1.3450     4.1030 h1         1 KHO       0.028200
     33 H10          3.0300    -0.0440     5.1550 ho         1 KHO       0.403000
     34 H11          1.7780    -1.3860    -2.1310 h1         1 KHO       0.063700
     35 HO6          3.5230    -0.0200    -1.7760 ho         1 KHO       0.412000
     36 H51          2.4080    -0.1330    -4.1560 h1         1 KHO       0.057200
     37 H52          1.4610     1.2630    -3.6260 h1         1 KHO       0.057200
@<TRIPOS>BOND
     1     1     2 1   
     2     1     3 1   
     3     1    19 1   
     4     1    20 1   
     5     2    21 1   
     6     3     4 1   
     7     3     5 1   
     8     3    22 1   
     9     4    23 1   
    10     5     6 1   
    11     5    16 1   
    12     5    24 1   
    13     6     7 1   
    14     7     8 1   
    15     7    12 1   
    16     7    25 1   
    17     8     9 1   
    18     8    11 1   
    19     8    26 1   
    20     9    10 1   
    21     9    13 1   
    22     9    27 1   
    23    10    28 1   
    24    11    29 1   
    25    12    13 1   
    26    13    14 1   
    27    13    30 1   
    28    14    15 1   
    29    14    31 1   
    30    14    32 1   
    31    15    33 1   
    32    16    17 1   
    33    16    18 1   
    34    16    34 1   
    35    17    35 1   
    36    18    19 1   
    37    18    36 1   
    38    18    37 1   
@<TRIPOS>SUBSTRUCTURE
     1 KHO         1 TEMP              0 ****  ****    0 ROOT
