@<TRIPOS>MOLECULE
KHO
   37    38     1     0     0
SMALL
No Charge or Current Charge


@<TRIPOS>ATOM
      1 C1          -1.0180     0.0790    -3.5210 c6         1 KHO       0.362300
      2 O4          -2.0100    -0.5200    -4.3330 oh         1 KHO      -0.644000
      3 C2          -0.9140    -0.6500    -2.1400 c6         1 KHO       0.131300
      4 O2          -2.1570    -0.5300    -1.3960 oh         1 KHO      -0.740000
      5 C3           0.3100    -0.0810    -1.3490 c6         1 KHO       0.192300
      6 O1           0.5280    -0.7910    -0.0980 os         1 KHO      -0.455000
      7 C6           0.4270    -0.0170     1.1180 c5         1 KHO       0.373300
      8 C7          -1.0630     0.0540     1.5740 c5         1 KHO       0.080300
      9 C8          -0.7930     0.5680     3.0120 c5         1 KHO       0.141300
     10 O3          -1.9570     0.4770     3.8430 oh         1 KHO      -0.705000
     11 O8          -1.9200     0.9210     0.8100 oh         1 KHO      -0.724000
     12 O7           1.0400    -0.7630     2.1840 os         1 KHO      -0.431000
     13 C4           0.3840    -0.3820     3.4320 c5         1 KHO       0.167300
     14 C5           1.3940     0.2810     4.4120 c3         1 KHO       0.163600
     15 O5           2.3380    -0.6770     4.9290 oh         1 KHO      -0.705000
     16 C9           1.6050    -0.1220    -2.2260 c6         1 KHO       0.126300
     17 O6           2.7180     0.5080    -1.5520 oh         1 KHO      -0.701000
     18 C10          1.3360     0.5580    -3.6000 c6         1 KHO       0.126600
     19 O9           0.2020    -0.0570    -4.2520 os         1 KHO      -0.472000
     20 H1          -1.2460     1.1460    -3.3750 h2         1 KHO       0.029700
     21 HO4         -1.6300    -0.4700    -5.2360 ho         1 KHO       0.464000
     22 H2          -0.7080    -1.7110    -2.3440 h1         1 KHO       0.075700
     23 HO2         -2.8630    -0.8470    -2.0150 ho         1 KHO       0.530000
     24 H3           0.0990     0.9760    -1.1290 h1         1 KHO       0.060700
     25 H7           0.8940     0.9720     1.0180 h2         1 KHO       0.051700
     26 H8          -1.4880    -0.9600     1.6040 h1         1 KHO       0.065700
     27 H9          -0.4420     1.6110     2.9770 h1         1 KHO       0.049700
     28 H6          -2.6950     0.8570     3.3080 ho         1 KHO       0.519000
     29 H5          -2.0760     0.4290    -0.0540 ho         1 KHO       0.538000
     30 H4          -0.0120    -1.2920     3.9020 h1         1 KHO       0.081700
     31 H5'1         0.8290     0.7300     5.2390 h1         1 KHO       0.028200
     32 H5'2         1.9160     1.0940     3.8890 h1         1 KHO       0.028200
     33 H10          2.9660    -0.1800     5.5060 ho         1 KHO       0.502000
     34 H11          1.8390    -1.1800    -2.4190 h1         1 KHO       0.063700
     35 HO6          3.5450     0.1360    -1.9400 ho         1 KHO       0.511000
     36 H51          2.2160     0.4490    -4.2500 h1         1 KHO       0.057200
     37 H52          1.1410     1.6320    -3.4660 h1         1 KHO       0.057200
@<TRIPOS>BOND
     1     1     2 1   
     2     1     3 1   
     3     1    19 1   
     4     1    20 1   
     5     2    21 1   
     6     3     4 1   
     7     3     5 1   
     8     3    22 1   
     9     4    23 1   
    10     5     6 1   
    11     5    16 1   
    12     5    24 1   
    13     6     7 1   
    14     7     8 1   
    15     7    12 1   
    16     7    25 1   
    17     8     9 1   
    18     8    11 1   
    19     8    26 1   
    20     9    10 1   
    21     9    13 1   
    22     9    27 1   
    23    10    28 1   
    24    11    29 1   
    25    12    13 1   
    26    13    14 1   
    27    13    30 1   
    28    14    15 1   
    29    14    31 1   
    30    14    32 1   
    31    15    33 1   
    32    16    17 1   
    33    16    18 1   
    34    16    34 1   
    35    17    35 1   
    36    18    19 1   
    37    18    36 1   
    38    18    37 1   
@<TRIPOS>SUBSTRUCTURE
     1 KHO         1 TEMP              0 ****  ****    0 ROOT
