@<TRIPOS>MOLECULE
KHP
   32    33     1     0     0
SMALL
No Charge or Current Charge


@<TRIPOS>ATOM
      1 O5          -2.4920     3.2800     0.9860 oh         1 KHP      -0.706000
      2 C5B         -3.3130     2.3930     0.2010 c3         1 KHP       0.168600
      3 C4B         -2.8460     0.9160     0.3330 c5         1 KHP       0.166300
      4 O4          -1.5960     0.7050    -0.3660 os         1 KHP      -0.448000
      5 C1B         -1.4390    -0.7220    -0.5780 c5         1 KHP       0.350300
      6 C2B         -2.8380    -1.3640    -0.2360 c5         1 KHP       0.105300
      7 O2B         -3.2430    -2.4590    -1.0850 oh         1 KHP      -0.706000
      8 C3B         -3.7670    -0.1240    -0.3630 c5         1 KHP       0.142300
      9 O3B         -5.0390    -0.3240     0.2720 oh         1 KHP      -0.700000
     10 O1          -0.5000    -1.2530     0.3890 os         1 KHP      -0.359100
     11 C1           0.8130    -0.8390     0.1860 ca         1 KHP       0.200100
     12 C2           1.7330    -1.2120     1.1770 ca         1 KHP      -0.181500
     13 C3           3.0910    -0.8650     1.0790 ca         1 KHP      -0.008000
     14 C4           3.5570    -0.1310    -0.0340 ca         1 KHP      -0.223200
     15 N1           5.0020     0.2430    -0.1460 no         1 KHP       0.701200
     16 O3           5.7700    -0.1070     0.7600 o          1 KHP      -0.406000
     17 O2           5.3650     0.8850    -1.1400 o          1 KHP      -0.406000
     18 C5           2.6390     0.2430    -1.0400 ca         1 KHP      -0.008000
     19 C6           1.2810    -0.1080    -0.9350 ca         1 KHP      -0.181500
     20 H5B         -2.8080     4.1970     0.8100 ho         1 KHP       0.508000
     21 H5'1        -4.3570     2.4580     0.5350 h1         1 KHP       0.032700
     22 H5'2        -3.2870     2.6790    -0.8590 h1         1 KHP       0.032700
     23 H4          -2.7140     0.6760     1.3970 h1         1 KHP       0.084700
     24 H1          -1.1410    -0.9450    -1.6110 h2         1 KHP       0.077700
     25 H2B         -2.8310    -1.6990     0.8130 h1         1 KHP       0.075700
     26 H7          -2.6590    -3.2280    -0.8740 ho         1 KHP       0.523000
     27 H3B         -3.9090     0.1460    -1.4200 h1         1 KHP       0.058700
     28 H2          -5.4000    -1.1630    -0.1020 ho         1 KHP       0.523000
     29 H8           1.3870    -1.7790     2.0380 ha         1 KHP       0.140500
     30 H3           3.7720    -1.1720     1.8720 ha         1 KHP       0.151000
     31 H5           2.9680     0.8080    -1.9120 ha         1 KHP       0.151000
     32 H6           0.6230     0.2070    -1.7390 ha         1 KHP       0.140500
@<TRIPOS>BOND
     1     1     2 1   
     2     1    20 1   
     3     2     3 1   
     4     2    21 1   
     5     2    22 1   
     6     3     4 1   
     7     3     8 1   
     8     3    23 1   
     9     4     5 1   
    10     5     6 1   
    11     5    10 1   
    12     5    24 1   
    13     6     7 1   
    14     6     8 1   
    15     6    25 1   
    16     7    26 1   
    17     8     9 1   
    18     8    27 1   
    19     9    28 1   
    20    10    11 1   
    21    11    12 ar  
    22    11    19 ar  
    23    12    13 ar  
    24    12    29 1   
    25    13    14 ar  
    26    13    30 1   
    27    14    15 1   
    28    14    18 ar  
    29    15    16 1   
    30    15    17 1   
    31    18    19 ar  
    32    18    31 1   
    33    19    32 1   
@<TRIPOS>SUBSTRUCTURE
     1 KHP         1 TEMP              0 ****  ****    0 ROOT
