@<TRIPOS>MOLECULE
KHP
   32    33     1     0     0
SMALL
abcg2


@<TRIPOS>ATOM
      1 O5          -2.8030     3.3320     0.6180 oh         1 KHP      -0.706000
      2 C5B         -3.5170     2.3240    -0.0550 c3         1 KHP       0.168600
      3 C4B         -2.9890     0.9790     0.3710 c5         1 KHP       0.166300
      4 O4          -1.6520     0.8100    -0.0980 os         1 KHP      -0.448000
      5 C1B         -1.3980    -0.5310    -0.3850 c5         1 KHP       0.350300
      6 C2B         -2.6970    -1.2990    -0.1230 c5         1 KHP       0.105300
      7 O2B         -2.9480    -2.3410    -1.0200 oh         1 KHP      -0.706000
      8 C3B         -3.7410    -0.1970    -0.2370 c5         1 KHP       0.142300
      9 O3B         -4.9300    -0.4310     0.4590 oh         1 KHP      -0.700000
     10 O1          -0.3940    -1.0450     0.4650 os         1 KHP      -0.359100
     11 C1           0.8920    -0.7310     0.2480 ca         1 KHP       0.200100
     12 C2           1.8250    -1.4270     1.0220 ca         1 KHP      -0.181500
     13 C3           3.1730    -1.1900     0.8730 ca         1 KHP      -0.008000
     14 C4           3.5990    -0.2500    -0.0610 ca         1 KHP      -0.223200
     15 N1           5.0130    -0.0020    -0.2280 no         1 KHP       0.701200
     16 O3           5.7880    -0.6260     0.4610 o          1 KHP      -0.406000
     17 O2           5.3580     0.8180    -1.0490 o          1 KHP      -0.406000
     18 C5           2.6850     0.4530    -0.8310 ca         1 KHP      -0.008000
     19 C6           1.3310     0.2200    -0.6750 ca         1 KHP      -0.181500
     20 H5B         -3.1670     4.1830     0.3570 ho         1 KHP       0.508000
     21 H5'1        -4.5880     2.3520     0.1820 h1         1 KHP       0.032700
     22 H5'2        -3.4260     2.4120    -1.1460 h1         1 KHP       0.032700
     23 H4          -3.0190     0.9020     1.4680 h1         1 KHP       0.084700
     24 H1          -1.0740    -0.6330    -1.4270 h2         1 KHP       0.077700
     25 H2B         -2.6900    -1.6520     0.9180 h1         1 KHP       0.075700
     26 H7          -2.4380    -3.1120    -0.7550 ho         1 KHP       0.523000
     27 H3B         -3.9290     0.0050    -1.3030 h1         1 KHP       0.058700
     28 H2          -5.4550    -1.0690    -0.0340 ho         1 KHP       0.523000
     29 H8           1.4810    -2.1610     1.7390 ha         1 KHP       0.140500
     30 H3           3.8790    -1.7400     1.4780 ha         1 KHP       0.151000
     31 H5           3.0100     1.1890    -1.5510 ha         1 KHP       0.151000
     32 H6           0.6420     0.7990    -1.2730 ha         1 KHP       0.140500
@<TRIPOS>BOND
     1     1     2 1   
     2     1    20 1   
     3     2     3 1   
     4     2    21 1   
     5     2    22 1   
     6     3     4 1   
     7     3     8 1   
     8     3    23 1   
     9     4     5 1   
    10     5     6 1   
    11     5    10 1   
    12     5    24 1   
    13     6     7 1   
    14     6     8 1   
    15     6    25 1   
    16     7    26 1   
    17     8     9 1   
    18     8    27 1   
    19     9    28 1   
    20    10    11 1   
    21    11    12 ar  
    22    11    19 ar  
    23    12    13 ar  
    24    12    29 1   
    25    13    14 ar  
    26    13    30 1   
    27    14    15 1   
    28    14    18 ar  
    29    15    16 1   
    30    15    17 1   
    31    18    19 ar  
    32    18    31 1   
    33    19    32 1   
@<TRIPOS>SUBSTRUCTURE
     1 KHP         1 TEMP              0 ****  ****    0 ROOT
