@<TRIPOS>MOLECULE
KHQ
   71    76     1     0     0
SMALL
abcg2


@<TRIPOS>ATOM
      1 C4          -2.4100     2.1250    -1.4910 ca         1 KHQ      -0.186000
      2 C14         -9.3120    -2.7510     0.5920 c3         1 KHQ       0.322000
      3 C5          -2.5720     2.1260    -0.1020 ca         1 KHQ      -0.005300
      4 C6          -3.8850     2.5250     0.5300 c3         1 KHQ       0.225800
      5 C11         -8.3420    -0.4960    -0.0100 c          1 KHQ       0.619100
      6 C8          -4.9210     0.4260    -0.0010 c6         1 KHQ       0.143800
      7 C9          -5.9940    -0.2680    -0.8210 c6         1 KHQ       0.097500
      8 C13         -8.1030    -1.9920     0.1110 c3         1 KHQ      -0.245400
      9 N2          -0.1140     1.4960    -1.2520 nb         1 KHQ      -0.763000
     10 C3          -1.1720     1.8060    -2.0030 ca         1 KHQ       0.379900
     11 C1          -0.2690     1.4950     0.0630 ca         1 KHQ       0.624900
     12 C18         -7.3930     1.6770    -0.5750 c6         1 KHQ       0.097500
     13 C19         -6.2990     2.3510     0.2370 c6         1 KHQ       0.143800
     14 C20         -3.9850     4.0510     0.4910 c3         1 KHQ      -0.091100
     15 C21         -1.4860     1.8040     0.6830 ca         1 KHQ      -0.218000
     16 C23          2.0640     0.8030     0.4710 cc         1 KHQ       0.642700
     17 C25          3.7760     0.3170    -0.8030 ca         1 KHQ      -0.084200
     18 C26          4.0910     0.1780     0.5590 ca         1 KHQ       0.098400
     19 C27          5.3640    -0.2310     0.9390 ca         1 KHQ      -0.062000
     20 C28          6.3130    -0.4960    -0.0470 ca         1 KHQ       0.002000
     21 C29          5.9650    -0.3430    -1.4030 ca         1 KHQ      -0.104000
     22 C30          4.7020     0.0620    -1.8010 ca         1 KHQ      -0.105000
     23 C31          7.6580    -0.9380     0.3280 cc         1 KHQ      -0.148000
     24 C32          8.7250    -1.2460    -0.4960 cd         1 KHQ      -0.162000
     25 C35         12.0670    -0.8550     0.1660 cx         1 KHQ      -0.147700
     26 C36         13.2490    -0.6840    -0.7370 cx         1 KHQ      -0.124900
     27 C37         12.1360     0.3200    -0.7570 cx         1 KHQ      -0.124900
     28 C39          8.1750    -1.1670     1.6210 cc         1 KHQ       0.250900
     29 F15        -10.3600    -2.6420    -0.2330 f          1 KHQ      -0.110000
     30 F16         -9.0300    -4.0620     0.6770 f          1 KHQ      -0.110000
     31 F17         -9.7200    -2.3730     1.8080 f          1 KHQ      -0.110000
     32 N10         -7.3050     0.2340    -0.4570 n          1 KHQ      -0.411800
     33 N22          0.8110     1.1710     0.8560 nu         1 KHQ      -0.870100
     34 N24          2.4630     0.7220    -0.8210 na         1 KHQ      -0.317600
     35 N33          9.7430    -1.6240     0.2930 na         1 KHQ       0.134800
     36 N38          9.4280    -1.5760     1.5820 nd         1 KHQ      -0.526800
     37 N40          2.9990     0.4900     1.3340 nd         1 KHQ      -0.643100
     38 N7          -4.9870     1.8690    -0.1610 n3         1 KHQ      -0.719600
     39 O12         -9.4210    -0.0050     0.2870 o          1 KHQ      -0.578100
     40 H1          -3.2360     2.3550    -2.1490 ha         1 KHQ       0.143000
     41 H2          -3.8550     2.2200     1.5910 h1         1 KHQ       0.033700
     42 H3          -5.0270     0.1280     1.0560 h1         1 KHQ       0.045950
     43 H4          -3.9510     0.0600    -0.3420 h1         1 KHQ       0.045950
     44 H5          -5.8250    -0.0810    -1.8860 h1         1 KHQ       0.063200
     45 H6          -5.9200    -1.3400    -0.6650 h1         1 KHQ       0.063200
     46 H7          -7.2840    -2.1900     0.8070 hc         1 KHQ       0.094200
     47 H8          -7.8040    -2.4150    -0.8510 hc         1 KHQ       0.094200
     48 H9          -1.0080     1.7940    -3.0740 h4         1 KHQ       0.021100
     49 H10         -8.3660     2.0180    -0.2330 h1         1 KHQ       0.063200
     50 H11         -7.2880     1.9540    -1.6280 h1         1 KHQ       0.063200
     51 H12         -6.3750     3.4210     0.0510 h1         1 KHQ       0.045950
     52 H13         -6.4890     2.1890     1.3110 h1         1 KHQ       0.045950
     53 H14         -3.0590     4.4890     0.8630 hc         1 KHQ       0.047033
     54 H15         -4.1430     4.4070    -0.5280 hc         1 KHQ       0.047033
     55 H16         -4.7930     4.4240     1.1190 hc         1 KHQ       0.047033
     56 H17         -1.5720     1.7810     1.7630 ha         1 KHQ       0.127000
     57 H18          5.6010    -0.3390     1.9900 ha         1 KHQ       0.127000
     58 H19          6.7010    -0.5470    -2.1700 ha         1 KHQ       0.106000
     59 H20          4.4570     0.1710    -2.8490 ha         1 KHQ       0.115000
     60 H21          8.8270    -1.2330    -1.5700 h4         1 KHQ       0.150000
     61 H22         11.0610    -2.1910    -1.1810 h1         1 KHQ       0.063200
     62 H23         11.3820    -2.8780     0.4040 h1         1 KHQ       0.063200
     63 H24         12.2300    -0.6550     1.2190 hc         1 KHQ       0.099700
     64 H25         14.1930    -0.4000    -0.2900 hc         1 KHQ       0.073450
     65 H26         13.3430    -1.3550    -1.5820 hc         1 KHQ       0.073450
     66 H27         11.4780     0.3340    -1.6180 hc         1 KHQ       0.073450
     67 H28         12.3180     1.2950    -0.3250 hc         1 KHQ       0.073450
     68 H29          7.6770    -1.0560     2.5730 h4         1 KHQ       0.038100
     69 H30          0.6720     1.1880     1.8550 hn         1 KHQ       0.528000
     70 H31          1.8580     0.9270    -1.6060 hn         1 KHQ       0.391000
     71 C34         11.0910    -1.9640    -0.1150 c3         1 KHQ       0.119600
@<TRIPOS>BOND
     1     1     3 ar  
     2     1    10 ar  
     3     1    40 1   
     4     2     8 1   
     5     2    29 1   
     6     2    30 1   
     7     2    31 1   
     8     3     4 1   
     9     3    15 ar  
    10     4    14 1   
    11     4    38 1   
    12     4    41 1   
    13     5     8 1   
    14     5    32 1   
    15     5    39 2   
    16     6     7 1   
    17     6    38 1   
    18     6    42 1   
    19     6    43 1   
    20     7    32 1   
    21     7    44 1   
    22     7    45 1   
    23     8    46 1   
    24     8    47 1   
    25     9    10 ar  
    26     9    11 ar  
    27    10    48 1   
    28    11    15 ar  
    29    11    33 1   
    30    12    13 1   
    31    12    32 1   
    32    12    49 1   
    33    12    50 1   
    34    13    38 1   
    35    13    51 1   
    36    13    52 1   
    37    14    53 1   
    38    14    54 1   
    39    14    55 1   
    40    15    56 1   
    41    16    33 1   
    42    16    34 1   
    43    16    37 2   
    44    17    18 ar  
    45    17    22 ar  
    46    17    34 1   
    47    18    19 ar  
    48    18    37 1   
    49    19    20 ar  
    50    19    57 1   
    51    20    21 ar  
    52    20    23 1   
    53    21    22 ar  
    54    21    58 1   
    55    22    59 1   
    56    23    24 2   
    57    23    28 1   
    58    24    35 1   
    59    24    60 1   
    60    25    26 1   
    61    25    27 1   
    62    25    63 1   
    63    25    71 1   
    64    26    27 1   
    65    26    64 1   
    66    26    65 1   
    67    27    66 1   
    68    27    67 1   
    69    28    36 2   
    70    28    68 1   
    71    33    69 1   
    72    34    70 1   
    73    35    36 1   
    74    35    71 1   
    75    61    71 1   
    76    62    71 1   
@<TRIPOS>SUBSTRUCTURE
     1 KHQ         1 TEMP              0 ****  ****    0 ROOT
