@<TRIPOS>MOLECULE
KHQ
   71    76     1     0     0
SMALL
No Charge or Current Charge


@<TRIPOS>ATOM
      1 C4          -2.4220     2.4930    -1.5580 ca         1 KHQ      -0.186000
      2 C14         -9.3110    -3.2660    -0.2670 c3         1 KHQ       0.322000
      3 C5          -2.5790     2.4990    -0.1610 ca         1 KHQ      -0.005300
      4 C6          -3.9060     2.9000     0.4950 c3         1 KHQ       0.225800
      5 C11         -8.3590    -0.8390    -0.1330 c          1 KHQ       0.619100
      6 C8          -4.7630     0.5760     0.2830 c6         1 KHQ       0.143800
      7 C9          -5.8750    -0.3470    -0.2830 c6         1 KHQ       0.097500
      8 C13         -8.0800    -2.3470    -0.1900 c3         1 KHQ      -0.245400
      9 N2          -0.1290     1.7420    -1.3630 nb         1 KHQ      -0.763000
     10 C3          -1.1920     2.1120    -2.1120 ca         1 KHQ       0.379900
     11 C1          -0.2800     1.7450    -0.0330 ca         1 KHQ       0.624900
     12 C18         -7.5150     1.5070     0.1470 c6         1 KHQ       0.097500
     13 C19         -6.3410     2.3590     0.6990 c6         1 KHQ       0.143800
     14 C20         -4.1520     4.4060     0.2410 c3         1 KHQ      -0.091100
     15 C21         -1.4690     2.1100     0.6110 ca         1 KHQ      -0.218000
     16 C23          2.0640     0.9670     0.3840 cc         1 KHQ       0.642700
     17 C25          3.8590     0.4200    -0.7500 ca         1 KHQ      -0.084200
     18 C26          4.0830     0.3020     0.5920 ca         1 KHQ       0.098400
     19 C27          5.3310    -0.1210     1.0710 ca         1 KHQ      -0.062000
     20 C28          6.3590    -0.4250     0.1420 ca         1 KHQ       0.002000
     21 C29          6.0940    -0.2920    -1.2510 ca         1 KHQ      -0.104000
     22 C30          4.8310     0.1350    -1.7120 ca         1 KHQ      -0.105000
     23 C31          7.6690    -0.8680     0.6370 cc         1 KHQ      -0.148000
     24 C32          8.7160    -1.1800    -0.1820 cd         1 KHQ      -0.162000
     25 C35         12.0370    -0.8460    -0.1600 cx         1 KHQ      -0.147700
     26 C36         13.2090    -1.1340    -1.0700 cx         1 KHQ      -0.124900
     27 C37         12.0210    -0.3570    -1.5900 cx         1 KHQ      -0.124900
     28 C39          8.1250    -1.0600     1.9520 cc         1 KHQ       0.250900
     29 F15        -10.0300    -3.0380    -1.3890 f          1 KHQ      -0.110000
     30 F16         -8.9220    -4.5610    -0.2860 f          1 KHQ      -0.110000
     31 F17        -10.1200    -3.0980     0.8030 f          1 KHQ      -0.110000
     32 N10         -7.2710     0.0330     0.1020 n          1 KHQ      -0.411800
     33 N22          0.8160     1.3640     0.6950 nu         1 KHQ      -0.870100
     34 N24          2.5740     0.8430    -0.8880 na         1 KHQ      -0.317600
     35 N33          9.7480    -1.5440     0.6910 na         1 KHQ       0.134800
     36 N38          9.3750    -1.4680     2.0300 nd         1 KHQ      -0.526800
     37 N40          2.9490     0.6470     1.3290 nd         1 KHQ      -0.643100
     38 N7          -5.0370     2.0240     0.0590 n3         1 KHQ      -0.719600
     39 O12         -9.4950    -0.3960    -0.2330 o          1 KHQ      -0.578100
     40 H1          -3.2440     2.7730    -2.2100 ha         1 KHQ       0.143000
     41 H2          -3.7800     2.7830     1.5800 h1         1 KHQ       0.033700
     42 H3          -4.6600     0.3770     1.3610 h1         1 KHQ       0.045950
     43 H4          -3.8150     0.2730    -0.1850 h1         1 KHQ       0.045950
     44 H5          -5.8070    -0.3370    -1.3800 h1         1 KHQ       0.063200
     45 H6          -5.6510    -1.3700     0.0460 h1         1 KHQ       0.063200
     46 H7          -7.4480    -2.6040     0.6660 hc         1 KHQ       0.094200
     47 H8          -7.4020    -2.5330    -1.0290 hc         1 KHQ       0.094200
     48 H9          -1.0510     2.0990    -3.1930 h4         1 KHQ       0.021100
     49 H10         -8.4060     1.7150     0.7570 h1         1 KHQ       0.063200
     50 H11         -7.7380     1.8480    -0.8740 h1         1 KHQ       0.063200
     51 H12         -6.6040     3.4130     0.5400 h1         1 KHQ       0.045950
     52 H13         -6.2770     2.2050     1.7870 h1         1 KHQ       0.045950
     53 H14         -3.2420     4.9800     0.4510 hc         1 KHQ       0.047033
     54 H15         -4.4370     4.5860    -0.8020 hc         1 KHQ       0.047033
     55 H16         -4.9400     4.7990     0.8930 hc         1 KHQ       0.047033
     56 H17         -1.5320     2.0910     1.6940 ha         1 KHQ       0.127000
     57 H18          5.4920    -0.2090     2.1410 ha         1 KHQ       0.127000
     58 H19          6.8600    -0.5170    -1.9860 ha         1 KHQ       0.106000
     59 H20          4.6240     0.2380    -2.7750 ha         1 KHQ       0.115000
     60 H21          8.8300    -1.1780    -1.2590 h4         1 KHQ       0.150000
     61 H22         11.0060    -2.7060    -0.5000 h1         1 KHQ       0.063200
     62 H23         11.5660    -2.4750     1.1560 h1         1 KHQ       0.063200
     63 H24         12.1910    -0.0940     0.6120 hc         1 KHQ       0.099700
     64 H25         14.1340    -0.5890    -0.8950 hc         1 KHQ       0.073450
     65 H26         13.3440    -2.1520    -1.4280 hc         1 KHQ       0.073450
     66 H27         11.3610    -0.8560    -2.2960 hc         1 KHQ       0.073450
     67 H28         12.1480     0.7090    -1.7630 hc         1 KHQ       0.073450
     68 H29          7.5730    -0.9110     2.8710 h4         1 KHQ       0.038100
     69 H30          0.6770     1.3750     1.6960 hn         1 KHQ       0.528000
     70 H31          2.0520     1.0420    -1.7290 hn         1 KHQ       0.391000
     71 C34         11.1050    -1.9630     0.3020 c3         1 KHQ       0.119600
@<TRIPOS>BOND
     1     1     3 ar  
     2     1    10 ar  
     3     1    40 1   
     4     2     8 1   
     5     2    29 1   
     6     2    30 1   
     7     2    31 1   
     8     3     4 1   
     9     3    15 ar  
    10     4    14 1   
    11     4    38 1   
    12     4    41 1   
    13     5     8 1   
    14     5    32 1   
    15     5    39 2   
    16     6     7 1   
    17     6    38 1   
    18     6    42 1   
    19     6    43 1   
    20     7    32 1   
    21     7    44 1   
    22     7    45 1   
    23     8    46 1   
    24     8    47 1   
    25     9    10 ar  
    26     9    11 ar  
    27    10    48 1   
    28    11    15 ar  
    29    11    33 1   
    30    12    13 1   
    31    12    32 1   
    32    12    49 1   
    33    12    50 1   
    34    13    38 1   
    35    13    51 1   
    36    13    52 1   
    37    14    53 1   
    38    14    54 1   
    39    14    55 1   
    40    15    56 1   
    41    16    33 1   
    42    16    34 1   
    43    16    37 2   
    44    17    18 ar  
    45    17    22 ar  
    46    17    34 1   
    47    18    19 ar  
    48    18    37 1   
    49    19    20 ar  
    50    19    57 1   
    51    20    21 ar  
    52    20    23 1   
    53    21    22 ar  
    54    21    58 1   
    55    22    59 1   
    56    23    24 2   
    57    23    28 1   
    58    24    35 1   
    59    24    60 1   
    60    25    26 1   
    61    25    27 1   
    62    25    63 1   
    63    25    71 1   
    64    26    27 1   
    65    26    64 1   
    66    26    65 1   
    67    27    66 1   
    68    27    67 1   
    69    28    36 2   
    70    28    68 1   
    71    33    69 1   
    72    34    70 1   
    73    35    36 1   
    74    35    71 1   
    75    61    71 1   
    76    62    71 1   
@<TRIPOS>SUBSTRUCTURE
     1 KHQ         1 TEMP              0 ****  ****    0 ROOT
