@<TRIPOS>MOLECULE
KHR
   52    55     1     0     0
SMALL
abcg2


@<TRIPOS>ATOM
      1 N1          14.8860   -10.5370    28.6270 na         1 KHR       0.057900
      2 N3          15.2490   -14.7090    33.6820 nb         1 KHR      -0.656000
      3 C4          15.7780    -7.1060    27.7880 ca         1 KHR       0.004200
      4 C5          16.9680    -6.7050    28.4120 ca         1 KHR      -0.051000
      5 C6          17.5220    -5.4820    28.1160 ca         1 KHR       0.074100
      6 C7          15.1800    -8.4050    28.0910 cc         1 KHR      -0.263800
      7 C8          13.8100    -8.7670    28.1220 cc         1 KHR       0.434600
      8 C10         15.1780   -11.8260    28.9700 cc         1 KHR       0.408000
      9 C13         15.1060   -15.4800    31.4130 ca         1 KHR      -0.155500
     10 C15         14.7940   -13.5250    33.2630 ca         1 KHR       0.339400
     11 C17         16.5240   -12.1210    29.1190 cd         1 KHR      -0.329000
     12 C20         15.8700    -9.5800    28.4320 cd         1 KHR       0.454500
     13 O3          20.1960    -4.4200    30.4950 o          1 KHR      -0.565000
     14 S           18.8230    -4.5190    30.1530 s6         1 KHR       1.621600
     15 O2          17.8550    -5.0920    31.0200 o          1 KHR      -0.565000
     16 O1          18.7650    -5.1250    28.7100 os         1 KHR      -0.483800
     17 C1          16.9660    -4.5900    27.1950 ca         1 KHR       0.138100
     18 O           17.6250    -3.4330    26.9730 os         1 KHR      -0.332100
     19 C           17.0600    -2.5040    26.0430 c3         1 KHR       0.149900
     20 C3          15.2080    -6.2170    26.8680 ca         1 KHR      -0.069000
     21 C2          15.7810    -4.9860    26.5750 ca         1 KHR      -0.186000
     22 N           13.6320   -10.0520    28.4480 nd         1 KHR      -0.625100
     23 C9          12.6150    -7.9100    27.8730 c3         1 KHR      -0.113400
     24 N4          17.1750    -9.8680    28.5650 nd         1 KHR      -0.706000
     25 C18         17.4850   -11.1170    28.9020 cc         1 KHR       0.445300
     26 C19         18.9410   -11.4530    29.0490 c3         1 KHR      -0.152400
     27 N2          14.1390   -12.6600    29.1200 nu         1 KHR      -0.964200
     28 C11         14.2750   -14.0400    29.5260 c3         1 KHR       0.278100
     29 C12         14.6280   -14.2440    30.9850 ca         1 KHR      -0.083300
     30 C16         14.4730   -13.2470    31.9400 ca         1 KHR      -0.155500
     31 C14         15.3970   -15.6640    32.7570 ca         1 KHR       0.339400
     32 H1          17.4620    -7.3480    29.1250 ha         1 KHR       0.153000
     33 H2          15.2540   -16.2910    30.7110 ha         1 KHR       0.126000
     34 H3          14.6800   -12.7550    34.0200 h4         1 KHR       0.024600
     35 H4          16.8310   -13.1150    29.4050 ha         1 KHR       0.141000
     36 H7          17.7410    -1.6570    26.0260 h1         1 KHR       0.047033
     37 H8          16.9910    -2.9450    25.0470 h1         1 KHR       0.047033
     38 H9          16.0710    -2.1780    26.3720 h1         1 KHR       0.047033
     39 H10         14.3060    -6.4960    26.3440 ha         1 KHR       0.117000
     40 H11         15.3070    -4.3420    25.8490 ha         1 KHR       0.122000
     41 H12         11.7300    -8.3740    28.3070 hc         1 KHR       0.054700
     42 H13         12.7460    -6.9190    28.3100 hc         1 KHR       0.054700
     43 H14         12.4370    -7.7750    26.8040 hc         1 KHR       0.054700
     44 H15         19.5470   -10.5540    28.9540 hc         1 KHR       0.060033
     45 H16         19.1350   -11.9170    30.0180 hc         1 KHR       0.060033
     46 H17         19.2460   -12.1680    28.2800 hc         1 KHR       0.060033
     47 H18         13.2190   -12.2590    29.0200 hn         1 KHR       0.532000
     48 H19         13.3220   -14.5300    29.3200 h1         1 KHR       0.068700
     49 H20         15.0220   -14.5390    28.9030 h1         1 KHR       0.068700
     50 H21         14.1110   -12.2650    31.6680 ha         1 KHR       0.126000
     51 H22         15.7710   -16.6210    33.1060 h4         1 KHR       0.024600
     52 F1          18.3250    -3.0570    29.8670 f          1 KHR      -0.279900
@<TRIPOS>BOND
     1     1     8 1   
     2     1    12 1   
     3     1    22 1   
     4     2    10 ar  
     5     2    31 ar  
     6     3     4 ar  
     7     3     6 1   
     8     3    20 ar  
     9     4     5 ar  
    10     4    32 1   
    11     5    16 1   
    12     5    17 ar  
    13     6     7 1   
    14     6    12 2   
    15     7    22 2   
    16     7    23 1   
    17     8    11 2   
    18     8    27 1   
    19     9    29 ar  
    20     9    31 ar  
    21     9    33 1   
    22    10    30 ar  
    23    10    34 1   
    24    11    25 1   
    25    11    35 1   
    26    12    24 1   
    27    13    14 2   
    28    14    15 2   
    29    14    16 1   
    30    14    52 1   
    31    17    18 1   
    32    17    21 ar  
    33    18    19 1   
    34    19    36 1   
    35    19    37 1   
    36    19    38 1   
    37    20    21 ar  
    38    20    39 1   
    39    21    40 1   
    40    23    41 1   
    41    23    42 1   
    42    23    43 1   
    43    24    25 2   
    44    25    26 1   
    45    26    44 1   
    46    26    45 1   
    47    26    46 1   
    48    27    28 1   
    49    27    47 1   
    50    28    29 1   
    51    28    48 1   
    52    28    49 1   
    53    29    30 ar  
    54    30    50 1   
    55    31    51 1   
@<TRIPOS>SUBSTRUCTURE
     1 KHR         1 TEMP              0 ****  ****    0 ROOT
