@<TRIPOS>MOLECULE
KHR
   52    55     1     0     0
SMALL
No Charge or Current Charge


@<TRIPOS>ATOM
      1 N1          14.6290   -10.6340    28.6020 na         1 KHR       0.057900
      2 N3          15.5070   -14.1490    33.6530 nb         1 KHR      -0.656000
      3 C4          15.7560    -7.2230    27.9690 ca         1 KHR       0.004200
      4 C5          16.9640    -6.8840    28.6190 ca         1 KHR      -0.051000
      5 C6          17.6360    -5.6840    28.3300 ca         1 KHR       0.074100
      6 C7          15.0300    -8.4730    28.2860 cc         1 KHR      -0.263800
      7 C8          13.6460    -8.7930    28.2280 cc         1 KHR       0.434600
      8 C10         14.9700   -11.9670    28.8230 cc         1 KHR       0.408000
      9 C13         15.8780   -14.7790    31.3400 ca         1 KHR      -0.155500
     10 C15         14.3110   -13.6340    33.2850 ca         1 KHR       0.339400
     11 C17         16.3360   -12.1720    28.8520 cd         1 KHR      -0.329000
     12 C20         15.6320    -9.6840    28.4910 cd         1 KHR       0.454500
     13 O3          19.7790    -4.6850    31.2240 o          1 KHR      -0.565000
     14 S           18.8240    -4.2580    30.1860 s6         1 KHR       1.621600
     15 O2          17.4340    -3.9380    30.5560 o          1 KHR      -0.565000
     16 O1          18.8130    -5.4110    28.9970 os         1 KHR      -0.483800
     17 C1          17.1220    -4.7970    27.3560 ca         1 KHR       0.138100
     18 O           17.8220    -3.6390    27.0630 os         1 KHR      -0.332100
     19 C           17.3700    -2.6900    26.0810 c3         1 KHR       0.149900
     20 C3          15.2410    -6.3190    27.0150 ca         1 KHR      -0.069000
     21 C2          15.9150    -5.1240    26.7040 ca         1 KHR      -0.186000
     22 N           13.3580   -10.0690    28.4430 nd         1 KHR      -0.625100
     23 C9          12.5550    -7.7800    28.0190 c3         1 KHR      -0.113400
     24 N4          17.0010    -9.8710    28.4900 nd         1 KHR      -0.706000
     25 C18         17.2650   -11.1590    28.6860 cc         1 KHR       0.445300
     26 C19         18.7240   -11.5150    28.7250 c3         1 KHR      -0.152400
     27 N2          13.9930   -12.9260    28.9690 nu         1 KHR      -0.964200
     28 C11         14.1660   -14.2880    29.5020 c3         1 KHR       0.278100
     29 C12         14.6340   -14.2430    30.9540 ca         1 KHR      -0.083300
     30 C16         13.8400   -13.6610    31.9610 ca         1 KHR      -0.155500
     31 C14         16.2720   -14.7110    32.6880 ca         1 KHR       0.339400
     32 H1          17.3790    -7.5330    29.3830 ha         1 KHR       0.153000
     33 H2          16.5380   -15.2440    30.6130 ha         1 KHR       0.126000
     34 H3          13.7110   -13.1860    34.0770 h4         1 KHR       0.024600
     35 H4          16.7040   -13.1770    29.0010 ha         1 KHR       0.141000
     36 H7          18.0740    -1.8520    26.0110 h1         1 KHR       0.047033
     37 H8          17.3000    -3.1570    25.0900 h1         1 KHR       0.047033
     38 H9          16.3870    -2.2860    26.3510 h1         1 KHR       0.047033
     39 H10         14.3320    -6.5510    26.4700 ha         1 KHR       0.117000
     40 H11         15.4860    -4.4730    25.9490 ha         1 KHR       0.122000
     41 H12         11.6330    -8.0920    28.5230 hc         1 KHR       0.054700
     42 H13         12.8370    -6.8040    28.4290 hc         1 KHR       0.054700
     43 H14         12.3300    -7.6640    26.9540 hc         1 KHR       0.054700
     44 H15         19.3670   -10.6330    28.6230 hc         1 KHR       0.060033
     45 H16         18.9740   -12.0030    29.6740 hc         1 KHR       0.060033
     46 H17         18.9720   -12.2070    27.9130 hc         1 KHR       0.060033
     47 H18         13.0460   -12.5390    28.9370 hn         1 KHR       0.532000
     48 H19         13.2150   -14.8370    29.4520 h1         1 KHR       0.068700
     49 H20         14.8920   -14.8450    28.8930 h1         1 KHR       0.068700
     50 H21         12.8710   -13.2300    31.7260 ha         1 KHR       0.126000
     51 H22         17.2310   -15.1190    33.0050 h4         1 KHR       0.024600
     52 F1          19.4570    -2.8960    29.5180 f          1 KHR      -0.279900
@<TRIPOS>BOND
     1     1     8 1   
     2     1    12 1   
     3     1    22 1   
     4     2    10 ar  
     5     2    31 ar  
     6     3     4 ar  
     7     3     6 1   
     8     3    20 ar  
     9     4     5 ar  
    10     4    32 1   
    11     5    16 1   
    12     5    17 ar  
    13     6     7 1   
    14     6    12 2   
    15     7    22 2   
    16     7    23 1   
    17     8    11 2   
    18     8    27 1   
    19     9    29 ar  
    20     9    31 ar  
    21     9    33 1   
    22    10    30 ar  
    23    10    34 1   
    24    11    25 1   
    25    11    35 1   
    26    12    24 1   
    27    13    14 2   
    28    14    15 2   
    29    14    16 1   
    30    14    52 1   
    31    17    18 1   
    32    17    21 ar  
    33    18    19 1   
    34    19    36 1   
    35    19    37 1   
    36    19    38 1   
    37    20    21 ar  
    38    20    39 1   
    39    21    40 1   
    40    23    41 1   
    41    23    42 1   
    42    23    43 1   
    43    24    25 2   
    44    25    26 1   
    45    26    44 1   
    46    26    45 1   
    47    26    46 1   
    48    27    28 1   
    49    27    47 1   
    50    28    29 1   
    51    28    48 1   
    52    28    49 1   
    53    29    30 ar  
    54    30    50 1   
    55    31    51 1   
@<TRIPOS>SUBSTRUCTURE
     1 KHR         1 TEMP              0 ****  ****    0 ROOT
