@<TRIPOS>MOLECULE
KHS
   47    48     1     0     0
SMALL
No Charge or Current Charge


@<TRIPOS>ATOM
      1 ClB          8.3970     0.9450     1.2970 cl         1 KHS      -0.185000
      2 CBB          7.7510    -0.4290     0.3990 ca         1 KHS       0.122000
      3 CBA          8.6510    -1.3830    -0.1080 ca         1 KHS      -0.088000
      4 CAW          8.1750    -2.4910    -0.8270 ca         1 KHS      -0.109000
      5 CAX          6.7960    -2.6440    -1.0400 ca         1 KHS      -0.094000
      6 CAY          5.8910    -1.6940    -0.5350 ca         1 KHS      -0.117000
      7 CAZ          6.3600    -0.5760     0.1920 ca         1 KHS      -0.089000
      8 SAV          5.2330     0.6660     0.8550 ss         1 KHS      -0.115000
      9 CAU          3.5290     0.0180     0.5610 c3         1 KHS      -0.000400
     10 CAT          2.4790     0.9760     1.1540 c3         1 KHS       0.115000
     11 NAS          1.1090     0.4840     0.9680 ns         1 KHS      -0.484900
     12 CAQ          0.4210     0.5080    -0.2270 c          1 KHS       0.608100
     13 OAR          0.9470     0.9420    -1.2410 o          1 KHS      -0.575100
     14 CAO         -0.9840    -0.1280    -0.2250 c3         1 KHS      -0.302000
     15 CAP         -1.1470    -1.0890    -1.4450 c3         1 KHS      -0.079600
     16 CAN         -1.3130    -0.9230     1.0860 c3         1 KHS      -0.079600
     17 SAL         -2.0730     1.3410    -0.3720 sy         1 KHS       0.954100
     18 OAM         -1.7880     2.1830     0.8000 o          1 KHS      -0.480500
     19 OAK         -1.9040     1.8780    -1.7320 o          1 KHS      -0.480500
     20 CAJ         -3.7840     0.6700    -0.2080 ca         1 KHS       0.196900
     21 NAI         -4.4350     0.2270    -1.3250 nb         1 KHS      -0.600000
     22 CAE         -5.6860    -0.2690    -1.1930 ca         1 KHS       0.374900
     23 CAF         -6.3530    -0.3550     0.0420 ca         1 KHS      -0.214300
     24 CAC         -7.7680    -0.9220     0.0960 c3         1 KHS       0.364300
     25 FAA         -8.6790    -0.0060    -0.2990 f          1 KHS      -0.106000
     26 FAD         -7.9120    -1.9980    -0.7110 f          1 KHS      -0.106000
     27 FAB         -8.1220    -1.3210     1.3390 f          1 KHS      -0.106000
     28 CAG         -5.6900     0.1110     1.1960 ca         1 KHS      -0.039000
     29 CAH         -4.3910     0.6280     1.0650 ca         1 KHS      -0.083000
     30 H1           9.7180    -1.2610     0.0580 ha         1 KHS       0.130000
     31 H2           8.8730    -3.2270    -1.2190 ha         1 KHS       0.121000
     32 H3           6.4260    -3.5010    -1.5990 ha         1 KHS       0.117000
     33 H4           4.8330    -1.8430    -0.7230 ha         1 KHS       0.116000
     34 H5           3.3670    -0.0840    -0.5190 h1         1 KHS       0.073200
     35 H6           3.4340    -0.9680     1.0320 h1         1 KHS       0.073200
     36 H7           2.6660     1.0980     2.2290 h1         1 KHS       0.073200
     37 H8           2.5740     1.9630     0.6810 h1         1 KHS       0.073200
     38 H9           0.6260     0.0930     1.7660 hn         1 KHS       0.322500
     39 H10         -0.4270    -1.9150    -1.3820 hc         1 KHS       0.057867
     40 H11         -2.1520    -1.5260    -1.4790 hc         1 KHS       0.057867
     41 H12         -0.9740    -0.5720    -2.3980 hc         1 KHS       0.057867
     42 H13         -1.3120    -0.2780     1.9740 hc         1 KHS       0.057867
     43 H14         -2.3010    -1.3960     1.0250 hc         1 KHS       0.057867
     44 H15         -0.5840    -1.7280     1.2470 hc         1 KHS       0.057867
     45 H16         -6.1650    -0.6060    -2.1120 h4         1 KHS       0.047100
     46 H17         -6.1650     0.0800     2.1760 ha         1 KHS       0.142000
     47 H18         -3.8630     0.9910     1.9440 ha         1 KHS       0.160000
@<TRIPOS>BOND
     1     1     2 1   
     2     2     3 ar  
     3     2     7 ar  
     4     3     4 ar  
     5     3    30 1   
     6     4     5 ar  
     7     4    31 1   
     8     5     6 ar  
     9     5    32 1   
    10     6     7 ar  
    11     6    33 1   
    12     7     8 1   
    13     8     9 1   
    14     9    10 1   
    15     9    34 1   
    16     9    35 1   
    17    10    11 1   
    18    10    36 1   
    19    10    37 1   
    20    11    12 1   
    21    11    38 1   
    22    12    13 2   
    23    12    14 1   
    24    14    15 1   
    25    14    16 1   
    26    14    17 1   
    27    15    39 1   
    28    15    40 1   
    29    15    41 1   
    30    16    42 1   
    31    16    43 1   
    32    16    44 1   
    33    17    18 2   
    34    17    19 2   
    35    17    20 1   
    36    20    21 ar  
    37    20    29 ar  
    38    21    22 ar  
    39    22    23 ar  
    40    22    45 1   
    41    23    24 1   
    42    23    28 ar  
    43    24    25 1   
    44    24    26 1   
    45    24    27 1   
    46    28    29 ar  
    47    28    46 1   
    48    29    47 1   
@<TRIPOS>SUBSTRUCTURE
     1 KHS         1 TEMP              0 ****  ****    0 ROOT
