@<TRIPOS>MOLECULE
KHS
   47    48     1     0     0
SMALL
abcg2


@<TRIPOS>ATOM
      1 CLB          8.0740     1.1080     1.2690 cl         1 KHS      -0.185000
      2 CBB          7.5750    -0.3170     0.4180 ca         1 KHS       0.122000
      3 CBA          8.5400    -1.1640    -0.1000 ca         1 KHS      -0.088000
      4 CAW          8.1530    -2.3070    -0.7830 ca         1 KHS      -0.109000
      5 CAX          6.8040    -2.5850    -0.9410 ca         1 KHS      -0.094000
      6 CAY          5.8420    -1.7320    -0.4210 ca         1 KHS      -0.117000
      7 CAZ          6.2110    -0.5800     0.2720 ca         1 KHS      -0.089000
      8 SAV          5.0760     0.5640     0.9730 ss         1 KHS      -0.115000
      9 CAU          3.4650    -0.1690     0.5840 c3         1 KHS      -0.000400
     10 CAT          2.3930     0.7380     1.1860 c3         1 KHS       0.115000
     11 NAS          1.0680     0.2190     0.9400 ns         1 KHS      -0.484900
     12 CAQ          0.4210     0.4190    -0.2120 c          1 KHS       0.608100
     13 OAR          0.8820     1.0670    -1.1370 o          1 KHS      -0.575100
     14 CAO         -0.9740    -0.2210    -0.3470 c3         1 KHS      -0.302000
     15 CAP         -1.0230    -1.0680    -1.6120 c3         1 KHS      -0.079600
     16 CAN         -1.4440    -1.0140     0.8670 c3         1 KHS      -0.079600
     17 SAL         -2.0580     1.2570    -0.5350 sy         1 KHS       0.954100
     18 OAM         -1.7150     2.1760     0.5490 o          1 KHS      -0.480500
     19 OAK         -2.0470     1.7330    -1.9110 o          1 KHS      -0.480500
     20 CAJ         -3.7200     0.6500    -0.2030 ca         1 KHS       0.196900
     21 NAI         -4.2590    -0.0390    -1.1860 nb         1 KHS      -0.600000
     22 CAE         -5.4900    -0.4960    -1.0190 ca         1 KHS       0.374900
     23 CAF         -6.2170    -0.2600     0.1430 ca         1 KHS      -0.214300
     24 CAC         -7.6040    -0.7950     0.3240 c3         1 KHS       0.364300
     25 FAA         -8.4560     0.1740     0.6750 f          1 KHS      -0.106000
     26 FAD         -8.0780    -1.3630    -0.7850 f          1 KHS      -0.106000
     27 FAB         -7.6410    -1.7160     1.2930 f          1 KHS      -0.106000
     28 CAG         -5.6320     0.4740     1.1650 ca         1 KHS      -0.039000
     29 CAH         -4.3400     0.9450     0.9970 ca         1 KHS      -0.083000
     30 H1           9.5880    -0.9290     0.0330 ha         1 KHS       0.130000
     31 H2           8.9050    -2.9720    -1.1860 ha         1 KHS       0.121000
     32 H3           6.4890    -3.4730    -1.4720 ha         1 KHS       0.117000
     33 H4           4.7990    -1.9770    -0.5630 ha         1 KHS       0.116000
     34 H5           3.3390    -0.2390    -0.4970 h1         1 KHS       0.073200
     35 H6           3.3920    -1.1660     1.0180 h1         1 KHS       0.073200
     36 H7           2.5210     0.8060     2.2650 h1         1 KHS       0.073200
     37 H8           2.4710     1.7460     0.7800 h1         1 KHS       0.073200
     38 H9           0.6540    -0.3460     1.6620 hn         1 KHS       0.322500
     39 H10         -0.3550    -1.9210    -1.4870 hc         1 KHS       0.057867
     40 H11         -2.0260    -1.4560    -1.7860 hc         1 KHS       0.057867
     41 H12         -0.7050    -0.5140    -2.4910 hc         1 KHS       0.057867
     42 H13         -1.5100    -0.4160     1.7750 hc         1 KHS       0.057867
     43 H14         -2.4170    -1.4650     0.6850 hc         1 KHS       0.057867
     44 H15         -0.7550    -1.8400     1.0460 hc         1 KHS       0.057867
     45 H16         -5.9040    -1.0630    -1.8420 h4         1 KHS       0.047100
     46 H17         -6.1600     0.6830     2.0860 ha         1 KHS       0.142000
     47 H18         -3.8500     1.5140     1.7730 ha         1 KHS       0.160000
@<TRIPOS>BOND
     1     1     2 1   
     2     2     3 ar  
     3     2     7 ar  
     4     3     4 ar  
     5     3    30 1   
     6     4     5 ar  
     7     4    31 1   
     8     5     6 ar  
     9     5    32 1   
    10     6     7 ar  
    11     6    33 1   
    12     7     8 1   
    13     8     9 1   
    14     9    10 1   
    15     9    34 1   
    16     9    35 1   
    17    10    11 1   
    18    10    36 1   
    19    10    37 1   
    20    11    12 1   
    21    11    38 1   
    22    12    13 2   
    23    12    14 1   
    24    14    15 1   
    25    14    16 1   
    26    14    17 1   
    27    15    39 1   
    28    15    40 1   
    29    15    41 1   
    30    16    42 1   
    31    16    43 1   
    32    16    44 1   
    33    17    18 2   
    34    17    19 2   
    35    17    20 1   
    36    20    21 ar  
    37    20    29 ar  
    38    21    22 ar  
    39    22    23 ar  
    40    22    45 1   
    41    23    24 1   
    42    23    28 ar  
    43    24    25 1   
    44    24    26 1   
    45    24    27 1   
    46    28    29 ar  
    47    28    46 1   
    48    29    47 1   
@<TRIPOS>SUBSTRUCTURE
     1 KHS         1 TEMP              0 ****  ****    0 ROOT
