@<TRIPOS>MOLECULE
KHW
   36    37     1     0     0
SMALL
No Charge or Current Charge


@<TRIPOS>ATOM
      1 N1           1.7420     4.1220     8.4630 n8         1 KHW      -0.792000
      2 C2           2.0610     7.9260     8.8390 c3         1 KHW      -0.075400
      3 C3           1.2830     6.5850     8.8170 c3         1 KHW       0.161200
      4 C4           0.2730     6.4760     9.9590 cc         1 KHW       0.350800
      5 C6          -1.9850     7.5400     7.8320 ca         1 KHW      -0.116300
      6 C7          -2.3770     8.7280     8.4820 ca         1 KHW      -0.086000
      7 N            2.2630     5.4550     8.8160 n7         1 KHW      -0.638200
      8 C            1.9520    10.4950     8.6640 c3         1 KHW      -0.088100
      9 C1           1.1620     9.1720     8.6600 c3         1 KHW      -0.073400
     10 C10         -1.7450     8.7840     5.7450 ca         1 KHW      -0.110000
     11 C11         -1.6740     7.5740     6.4580 ca         1 KHW      -0.086000
     12 C8          -2.4460     9.9370     7.7680 ca         1 KHW      -0.110000
     13 C9          -2.1280     9.9660     6.4000 ca         1 KHW      -0.095000
     14 N2           0.5370     6.5210    11.2540 nd         1 KHW      -0.402000
     15 N3          -0.6680     6.4020    11.9040 nd         1 KHW      -0.050000
     16 N4          -1.6620     6.2860    11.0660 nc         1 KHW      -0.206800
     17 N5          -1.0870     6.3330     9.8380 na         1 KHW      -0.063700
     18 H1           2.3890     3.5650     7.8770 hn         1 KHW       0.403500
     19 H2           1.4880     3.5360     9.2770 hn         1 KHW       0.403500
     20 H3           2.8070     7.9160     8.0340 hc         1 KHW       0.061200
     21 H4           2.6150     8.0120     9.7830 hc         1 KHW       0.061200
     22 H5           0.7240     6.5640     7.8720 h1         1 KHW       0.079700
     23 H6          -2.9020     5.8960     8.8710 h1         1 KHW       0.082200
     24 H7          -1.4480     5.4480     7.9740 h1         1 KHW       0.082200
     25 H8          -2.6250     8.7190     9.5410 ha         1 KHW       0.114000
     26 H9           2.8370     5.4630     9.6830 hn         1 KHW       0.409000
     27 H10          1.2720    11.3450     8.5300 hc         1 KHW       0.035033
     28 H11          2.4840    10.6260     9.6140 hc         1 KHW       0.035033
     29 H12          2.6860    10.5110     7.8490 hc         1 KHW       0.035033
     30 H13          0.4140     9.2090     9.4610 hc         1 KHW       0.039700
     31 H14          0.6160     9.0910     7.7130 hc         1 KHW       0.039700
     32 H15         -1.5000     8.8050     4.6850 ha         1 KHW       0.116500
     33 H16         -1.3730     6.6660     5.9390 ha         1 KHW       0.114000
     34 H17         -2.7440    10.8520     8.2760 ha         1 KHW       0.116500
     35 H18         -2.1810    10.9020     5.8480 ha         1 KHW       0.116000
     36 C5          -1.8900     6.2280     8.6070 c3         1 KHW       0.132900
@<TRIPOS>BOND
     1     1     7 1   
     2     1    18 1   
     3     1    19 1   
     4     2     3 1   
     5     2     9 1   
     6     2    20 1   
     7     2    21 1   
     8     3     4 1   
     9     3     7 1   
    10     3    22 1   
    11     4    14 2   
    12     4    17 1   
    13     5     6 ar  
    14     5    11 ar  
    15     5    36 1   
    16     6    12 ar  
    17     6    25 1   
    18     7    26 1   
    19     8     9 1   
    20     8    27 1   
    21     8    28 1   
    22     8    29 1   
    23     9    30 1   
    24     9    31 1   
    25    10    11 ar  
    26    10    13 ar  
    27    10    32 1   
    28    11    33 1   
    29    12    13 ar  
    30    12    34 1   
    31    13    35 1   
    32    14    15 1   
    33    15    16 2   
    34    16    17 1   
    35    17    36 1   
    36    23    36 1   
    37    24    36 1   
@<TRIPOS>SUBSTRUCTURE
     1 KHW         1 TEMP              0 ****  ****    0 ROOT
