@<TRIPOS>MOLECULE
KHW
   36    37     1     0     0
SMALL
bcc


@<TRIPOS>ATOM
      1 N1           1.6490     4.5270     8.5210 n8         1 KHW      -0.681600
      2 C2           2.4230     7.9610     9.6820 c3         1 KHW      -0.075400
      3 C3           1.6190     6.8350     9.0400 c3         1 KHW       0.161200
      4 C4           0.2540     6.7250     9.6580 cc         1 KHW       0.350800
      5 C6          -1.9820     7.4050     7.0870 ca         1 KHW      -0.116300
      6 C7          -1.4370     8.6860     7.0730 ca         1 KHW      -0.104000
      7 N            2.3500     5.5850     9.1320 n7         1 KHW      -0.583000
      8 C            2.7000    10.4510    10.0140 c3         1 KHW      -0.088100
      9 C1           1.8670     9.3460     9.3830 c3         1 KHW      -0.073400
     10 C10         -4.0080     8.2820     6.1130 ca         1 KHW      -0.128000
     11 C11         -3.2710     7.2110     6.6040 ca         1 KHW      -0.104000
     12 C8          -2.1730     9.7570     6.5900 ca         1 KHW      -0.128000
     13 C9          -3.4620     9.5570     6.1090 ca         1 KHW      -0.113000
     14 N2          -0.0180     6.8210    10.9400 nd         1 KHW      -0.402000
     15 N3          -1.3200     6.5820    11.0710 nd         1 KHW      -0.050000
     16 N4          -1.8570     6.3450     9.9400 nc         1 KHW      -0.206800
     17 N5          -0.8910     6.4210     9.0350 na         1 KHW      -0.034400
     18 H1           2.3270     3.8810     8.1420 hn         1 KHW       0.348300
     19 H2           1.0930     4.0100     9.1930 hn         1 KHW       0.348300
     20 H3           3.4430     7.8870     9.2990 hc         1 KHW       0.061200
     21 H4           2.4810     7.8070    10.7630 hc         1 KHW       0.061200
     22 H5           1.5050     7.0600     7.9750 h1         1 KHW       0.079700
     23 H6          -1.7420     5.3100     7.5170 h1         1 KHW       0.082200
     24 H7          -0.2440     6.1170     7.1050 h1         1 KHW       0.082200
     25 H8          -0.4320     8.8590     7.4410 ha         1 KHW       0.132000
     26 H9           2.5650     5.3830    10.1030 hn         1 KHW       0.353800
     27 H10          2.3090    11.4370     9.7620 hc         1 KHW       0.035033
     28 H11          2.7070    10.3650    11.1020 hc         1 KHW       0.035033
     29 H12          3.7360    10.4090     9.6740 hc         1 KHW       0.035033
     30 H13          0.8360     9.4270     9.7400 hc         1 KHW       0.039700
     31 H14          1.8270     9.4880     8.2980 hc         1 KHW       0.039700
     32 H15         -5.0100     8.1160     5.7390 ha         1 KHW       0.134500
     33 H16         -3.7020     6.2170     6.6090 ha         1 KHW       0.132000
     34 H17         -1.7410    10.7490     6.5880 ha         1 KHW       0.134500
     35 H18         -4.0360    10.3940     5.7330 ha         1 KHW       0.134000
     36 C5          -1.1920     6.2430     7.6250 c3         1 KHW       0.103600
@<TRIPOS>BOND
     1     1     7 1   
     2     1    18 1   
     3     1    19 1   
     4     2     3 1   
     5     2     9 1   
     6     2    20 1   
     7     2    21 1   
     8     3     4 1   
     9     3     7 1   
    10     3    22 1   
    11     4    14 2   
    12     4    17 1   
    13     5     6 ar  
    14     5    11 ar  
    15     5    36 1   
    16     6    12 ar  
    17     6    25 1   
    18     7    26 1   
    19     8     9 1   
    20     8    27 1   
    21     8    28 1   
    22     8    29 1   
    23     9    30 1   
    24     9    31 1   
    25    10    11 ar  
    26    10    13 ar  
    27    10    32 1   
    28    11    33 1   
    29    12    13 ar  
    30    12    34 1   
    31    13    35 1   
    32    14    15 1   
    33    15    16 2   
    34    16    17 1   
    35    17    36 1   
    36    23    36 1   
    37    24    36 1   
@<TRIPOS>SUBSTRUCTURE
     1 KHW         1 TEMP              0 ****  ****    0 ROOT
