@<TRIPOS>MOLECULE
KHX
   82    88     1     0     0
SMALL
No Charge or Current Charge


@<TRIPOS>ATOM
      1 N1          21.2750     5.2270     9.8290 nb         1 KHX      -0.293000
      2 C7          14.2820     9.9400    10.9460 c3         1 KHX       0.159800
      3 C8          12.8030     8.9100    12.6670 c3         1 KHX       0.131800
      4 N2          20.2770     7.4080    10.1630 nb         1 KHX      -0.222000
      5 C9          12.1110     7.8400    11.7620 c3         1 KHX       0.094000
      6 C1          21.2780     6.5040    10.2840 ca         1 KHX       0.186900
      7 O5          20.4620     6.3830    15.6770 oh         1 KHX      -0.706000
      8 C5          17.6050     8.9500     9.5550 c5         1 KHX       0.265300
      9 C6          15.6770    10.0540    10.2480 c5         1 KHX       0.127300
     10 N3          17.9830     7.5770     9.2420 na         1 KHX      -0.298300
     11 C4          19.0670     5.7020     9.0230 ca         1 KHX      -0.100600
     12 O4          20.2440     9.0830    16.1330 oh         1 KHX      -0.702000
     13 C3          17.2060     6.6630     8.5250 cc         1 KHX       0.410700
     14 O3          19.0930     7.4370    13.0460 os         1 KHX      -0.439000
     15 C2          19.1690     6.9710     9.5350 ca         1 KHX       0.145500
     16 N4          17.8400     5.4830     8.3860 nd         1 KHX      -0.556100
     17 C           20.1630     4.8310     9.1900 ca         1 KHX       0.447900
     18 O           16.5160     8.9060    10.4990 os         1 KHX      -0.448000
     19 C10         13.8600     6.2390    10.9070 c          1 KHX       0.614100
     20 C11         14.7070     5.0700    11.3470 c3         1 KHX      -0.251400
     21 C12         15.2550     5.3990    12.7150 c          1 KHX       0.592100
     22 C13         17.0210     6.6080    14.0160 c3         1 KHX       0.099000
     23 C14         18.5630     6.5250    14.0430 c5         1 KHX       0.145300
     24 C15         19.8770     8.4480    13.7110 c5         1 KHX       0.316300
     25 C16         19.3350     8.4960    15.1780 c5         1 KHX       0.081300
     26 C17         19.1810     6.9700    15.4150 c5         1 KHX       0.115300
     27 C18         18.8490    10.6040    12.7590 cc         1 KHX       0.470700
     28 C19         20.5860    11.4140    11.7920 ca         1 KHX      -0.096600
     29 C20         21.5280    12.1830    11.0800 ca         1 KHX       0.449900
     30 C21         23.0800    10.5410    11.4380 ca         1 KHX       0.183900
     31 C22         20.9870    10.2040    12.2970 ca         1 KHX       0.166500
     32 C23         17.4830    10.4230    13.1160 cg         1 KHX      -0.106200
     33 C24         16.2900    10.2770    13.3070 c1         1 KHX      -0.099100
     34 C25         14.8320    10.1070    13.4100 c3         1 KHX       0.247900
     35 C26         15.6220    10.0710     8.6930 c5         1 KHX       0.144300
     36 C27         17.1320     9.8610     8.3590 c5         1 KHX       0.138300
     37 N10         21.2270    13.3910    10.5340 nv         1 KHX      -1.065900
     38 N11         22.7840    11.7470    10.8970 nb         1 KHX      -0.298000
     39 N12         22.2420     9.7380    12.1360 nb         1 KHX      -0.221000
     40 N5          14.2000     9.3090    12.3110 n3         1 KHX      -0.717600
     41 N6          12.8170     6.5510    11.7510 ns         1 KHX      -0.487900
     42 N7          16.4060     6.1460    12.7650 ns         1 KHX      -0.491900
     43 N8          19.8920     9.6800    12.9240 na         1 KHX      -0.268300
     44 N9          19.2440    11.6850    12.0650 nd         1 KHX      -0.530100
     45 O6          15.1340    11.3080     8.1370 oh         1 KHX      -0.680000
     46 O7          17.7850    11.1380     8.3400 oh         1 KHX      -0.686000
     47 H1          13.8490    10.9490    10.9830 h1         1 KHX       0.052700
     48 H2          13.6530     9.3810    10.2460 h1         1 KHX       0.052700
     49 H3          12.1630     9.8030    12.6800 h1         1 KHX       0.040200
     50 H4          12.7930     8.5080    13.6890 h1         1 KHX       0.040200
     51 H5          12.0000     8.2110    10.7360 h1         1 KHX       0.066700
     52 H6          11.0980     7.6670    12.1480 h1         1 KHX       0.066700
     53 H7          22.1770     6.8390    10.7980 h5         1 KHX       0.055100
     54 H8          20.9420     7.0850    16.1840 ho         1 KHX       0.522000
     55 H9          18.4810     9.4100    10.0300 h2         1 KHX       0.109700
     56 H10         16.1860    10.9510    10.6260 h1         1 KHX       0.081700
     57 H11         20.1630    10.0650    16.0630 ho         1 KHX       0.514000
     58 H12         16.2150     6.9050     8.1570 h5         1 KHX       0.077800
     59 H13         20.8310     2.8990     9.1150 hn         1 KHX       0.506000
     60 H14         19.2660     3.1710     8.4270 hn         1 KHX       0.506000
     61 H15         14.0550     4.2010    11.4760 hc         1 KHX       0.106200
     62 H16         15.5100     4.9370    10.6160 hc         1 KHX       0.106200
     63 H17         16.7060     7.6440    14.1920 h1         1 KHX       0.052200
     64 H18         16.6410     6.0060    14.8510 h1         1 KHX       0.052200
     65 H19         18.8610     5.4970    13.7940 h1         1 KHX       0.110700
     66 H20         20.9200     8.1060    13.7440 h2         1 KHX       0.118700
     67 H21         18.3540     8.9870    15.2290 h1         1 KHX       0.060700
     68 H22         18.4950     6.7650    16.2500 h1         1 KHX       0.055700
     69 H23         24.0970    10.1780    11.2970 h5         1 KHX       0.048100
     70 H24         14.3730    11.1040    13.4620 h1         1 KHX       0.054700
     71 H25         14.6410     9.6210    14.3760 h1         1 KHX       0.054700
     72 H26         15.0330     9.2200     8.3220 h1         1 KHX       0.053700
     73 H27         17.2550     9.3540     7.3910 h1         1 KHX       0.063700
     74 H28         21.8350    13.7440     9.8000 hn         1 KHX       0.508500
     75 H29         20.2400    13.6250    10.4570 hn         1 KHX       0.508500
     76 H31         12.6990     5.9440    12.5530 hn         1 KHX       0.313500
     77 H32         16.7900     6.4780    11.8870 hn         1 KHX       0.358500
     78 H33         14.1620    11.2090     8.0000 ho         1 KHX       0.502000
     79 H34         17.0380    11.7630     8.1610 ho         1 KHX       0.509000
     80 N           20.1610     3.5530     8.7220 nv         1 KHX      -1.064900
     81 O2          14.6650     5.0500    13.7270 o          1 KHX      -0.613100
     82 O1          14.1390     6.9010     9.9210 o          1 KHX      -0.618100
@<TRIPOS>BOND
     1     1     6 ar  
     2     1    17 ar  
     3     2     9 1   
     4     2    40 1   
     5     2    47 1   
     6     2    48 1   
     7     3     5 1   
     8     3    40 1   
     9     3    49 1   
    10     3    50 1   
    11     4     6 ar  
    12     4    15 ar  
    13     5    41 1   
    14     5    51 1   
    15     5    52 1   
    16     6    53 1   
    17     7    26 1   
    18     7    54 1   
    19     8    10 1   
    20     8    18 1   
    21     8    36 1   
    22     8    55 1   
    23     9    18 1   
    24     9    35 1   
    25     9    56 1   
    26    10    13 1   
    27    10    15 1   
    28    11    15 ar  
    29    11    16 1   
    30    11    17 ar  
    31    12    25 1   
    32    12    57 1   
    33    13    16 2   
    34    13    58 1   
    35    14    23 1   
    36    14    24 1   
    37    17    80 1   
    38    19    20 1   
    39    19    41 1   
    40    19    82 2   
    41    20    21 1   
    42    20    61 1   
    43    20    62 1   
    44    21    42 1   
    45    21    81 2   
    46    22    23 1   
    47    22    42 1   
    48    22    63 1   
    49    22    64 1   
    50    23    26 1   
    51    23    65 1   
    52    24    25 1   
    53    24    43 1   
    54    24    66 1   
    55    25    26 1   
    56    25    67 1   
    57    26    68 1   
    58    27    32 1   
    59    27    43 1   
    60    27    44 2   
    61    28    29 ar  
    62    28    31 ar  
    63    28    44 1   
    64    29    37 1   
    65    29    38 ar  
    66    30    38 ar  
    67    30    39 ar  
    68    30    69 1   
    69    31    39 ar  
    70    31    43 1   
    71    32    33 3   
    72    33    34 1   
    73    34    40 1   
    74    34    70 1   
    75    34    71 1   
    76    35    36 1   
    77    35    45 1   
    78    35    72 1   
    79    36    46 1   
    80    36    73 1   
    81    37    74 1   
    82    37    75 1   
    83    41    76 1   
    84    42    77 1   
    85    45    78 1   
    86    46    79 1   
    87    59    80 1   
    88    60    80 1   
@<TRIPOS>SUBSTRUCTURE
     1 KHX         1 TEMP              0 ****  ****    0 ROOT
