@<TRIPOS>MOLECULE
KHX
   82    88     1     0     0
SMALL
abcg2


@<TRIPOS>ATOM
      1 N1          21.2470     5.6840     9.7230 nb         1 KHX      -0.293000
      2 C7          14.1620     9.7420    10.9500 c3         1 KHX       0.159800
      3 C8          12.9390     8.8410    12.8320 c3         1 KHX       0.131800
      4 N2          20.1220     7.7910     9.9610 nb         1 KHX      -0.222000
      5 C9          12.3160     7.6570    12.0890 c3         1 KHX       0.094000
      6 C1          21.1530     6.9620    10.1100 ca         1 KHX       0.186900
      7 O5          19.9240     6.3180    15.9020 oh         1 KHX      -0.706000
      8 C5          17.3930     9.0400     9.4460 c5         1 KHX       0.265300
      9 C6          15.4890    10.0110    10.2780 c5         1 KHX       0.127300
     10 N3          17.8600     7.7390     9.0450 na         1 KHX      -0.298300
     11 C4          19.0480     5.8910     8.8840 ca         1 KHX      -0.100600
     12 O4          20.4130     8.9960    16.0110 oh         1 KHX      -0.702000
     13 C3          17.1440     6.7400     8.4210 cc         1 KHX       0.410700
     14 O3          18.8770     7.4650    13.1930 os         1 KHX      -0.439000
     15 C2          19.0920     7.2020     9.3500 ca         1 KHX       0.145500
     16 N4          17.8180     5.6240     8.3020 nd         1 KHX      -0.556100
     17 C           20.2020     5.1100     9.0950 ca         1 KHX       0.447900
     18 O           16.3370     8.8630    10.3830 os         1 KHX      -0.448000
     19 C10         13.9190     6.1740    10.9440 c          1 KHX       0.614100
     20 C11         15.0860     5.2180    11.1660 c3         1 KHX      -0.251400
     21 C12         15.8270     5.3390    12.4880 c          1 KHX       0.592100
     22 C13         16.7250     6.8720    14.1660 c3         1 KHX       0.099000
     23 C14         18.2350     6.6840    14.2310 c5         1 KHX       0.145300
     24 C15         19.7960     8.3710    13.7710 c5         1 KHX       0.316300
     25 C16         19.3280     8.5670    15.2120 c5         1 KHX       0.081300
     26 C17         18.8290     7.1560    15.5560 c5         1 KHX       0.115300
     27 C18         18.8620    10.4520    12.5990 cc         1 KHX       0.470700
     28 C19         20.6450    11.1440    11.6290 ca         1 KHX      -0.096600
     29 C20         21.6510    11.7750    10.8700 ca         1 KHX       0.449900
     30 C21         23.1110    10.1590    11.6470 ca         1 KHX       0.183900
     31 C22         21.0180    10.0100    12.3480 ca         1 KHX       0.166500
     32 C23         17.5110    10.3210    12.9800 cg         1 KHX      -0.106200
     33 C24         16.3180    10.2860    13.1320 c1         1 KHX      -0.099100
     34 C25         14.8670    10.2060    13.2570 c3         1 KHX       0.247900
     35 C26         15.4000    10.2040     8.7590 c5         1 KHX       0.144300
     36 C27         16.8500     9.9580     8.3150 c5         1 KHX       0.138300
     37 N10         21.4230    12.8700    10.1300 nv         1 KHX      -1.065900
     38 N11         22.8900    11.2490    10.9040 nb         1 KHX      -0.298000
     39 N12         22.2430     9.4790    12.3950 nb         1 KHX      -0.221000
     40 N5          14.2550     9.2440    12.3250 n3         1 KHX      -0.717600
     41 N6          13.2180     6.5200    12.0430 ns         1 KHX      -0.487900
     42 N7          16.1660     6.5870    12.8600 ns         1 KHX      -0.491900
     43 N8          19.8750     9.5730    12.9760 na         1 KHX      -0.268300
     44 N9          19.3050    11.4040    11.7950 nd         1 KHX      -0.530100
     45 O6          14.9210    11.4650     8.3390 oh         1 KHX      -0.680000
     46 O7          17.5480    11.1910     8.2840 oh         1 KHX      -0.686000
     47 H1          13.5710    10.6720    10.9020 h1         1 KHX       0.052700
     48 H2          13.6460     8.9880    10.3600 h1         1 KHX       0.052700
     49 H3          12.2180     9.6740    12.8060 h1         1 KHX       0.040200
     50 H4          13.0690     8.5580    13.8790 h1         1 KHX       0.040200
     51 H5          12.0460     7.9080    11.0670 h1         1 KHX       0.066700
     52 H6          11.3990     7.3790    12.6110 h1         1 KHX       0.066700
     53 H7          22.0230     7.3710    10.6100 h5         1 KHX       0.055100
     54 H8          20.5280     6.8530    16.4400 ho         1 KHX       0.522000
     55 H9          18.2420     9.5390     9.9160 h2         1 KHX       0.109700
     56 H10         15.9870    10.8830    10.7130 h1         1 KHX       0.081700
     57 H11         20.0720     9.4830    16.7720 ho         1 KHX       0.514000
     58 H12         16.1280     6.8990     8.0950 h5         1 KHX       0.077800
     59 H13         21.1200     3.2980     8.9460 hn         1 KHX       0.506000
     60 H14         19.5120     3.3530     8.3060 hn         1 KHX       0.506000
     61 H15         14.7190     4.1940    11.0860 hc         1 KHX       0.106200
     62 H16         15.7860     5.3790    10.3470 hc         1 KHX       0.106200
     63 H17         16.4630     7.8970    14.4200 h1         1 KHX       0.052200
     64 H18         16.2700     6.2080    14.9030 h1         1 KHX       0.052200
     65 H19         18.4850     5.6360    14.0630 h1         1 KHX       0.110700
     66 H20         20.8080     7.9620    13.7750 h2         1 KHX       0.118700
     67 H21         18.5020     9.2780    15.2520 h1         1 KHX       0.060700
     68 H22         18.0850     7.1680    16.3570 h1         1 KHX       0.055700
     69 H23         24.1280     9.7830    11.6350 h5         1 KHX       0.048100
     70 H24         14.4410    11.2150    13.1390 h1         1 KHX       0.054700
     71 H25         14.6310     9.8830    14.2730 h1         1 KHX       0.054700
     72 H26         14.7810     9.3990     8.3510 h1         1 KHX       0.053700
     73 H27         16.9020     9.4620     7.3440 h1         1 KHX       0.063700
     74 H28         22.1570    13.2430     9.5510 hn         1 KHX       0.508500
     75 H29         20.4910    13.2360    10.0330 hn         1 KHX       0.508500
     76 H31         13.5590     6.1990    12.9360 hn         1 KHX       0.313500
     77 H32         15.8780     7.3800    12.2960 hn         1 KHX       0.358500
     78 H33         13.9570    11.4300     8.3230 ho         1 KHX       0.502000
     79 H34         18.4530    11.0230     7.9910 ho         1 KHX       0.509000
     80 N           20.3070     3.8340     8.6910 nv         1 KHX      -1.064900
     81 O2          16.0940     4.3470    13.1690 o          1 KHX      -0.613100
     82 O1          13.6390     6.5640     9.8120 o          1 KHX      -0.618100
@<TRIPOS>BOND
     1     1     6 ar  
     2     1    17 ar  
     3     2     9 1   
     4     2    40 1   
     5     2    47 1   
     6     2    48 1   
     7     3     5 1   
     8     3    40 1   
     9     3    49 1   
    10     3    50 1   
    11     4     6 ar  
    12     4    15 ar  
    13     5    41 1   
    14     5    51 1   
    15     5    52 1   
    16     6    53 1   
    17     7    26 1   
    18     7    54 1   
    19     8    10 1   
    20     8    18 1   
    21     8    36 1   
    22     8    55 1   
    23     9    18 1   
    24     9    35 1   
    25     9    56 1   
    26    10    13 1   
    27    10    15 1   
    28    11    15 ar  
    29    11    16 1   
    30    11    17 ar  
    31    12    25 1   
    32    12    57 1   
    33    13    16 2   
    34    13    58 1   
    35    14    23 1   
    36    14    24 1   
    37    17    80 1   
    38    19    20 1   
    39    19    41 1   
    40    19    82 2   
    41    20    21 1   
    42    20    61 1   
    43    20    62 1   
    44    21    42 1   
    45    21    81 2   
    46    22    23 1   
    47    22    42 1   
    48    22    63 1   
    49    22    64 1   
    50    23    26 1   
    51    23    65 1   
    52    24    25 1   
    53    24    43 1   
    54    24    66 1   
    55    25    26 1   
    56    25    67 1   
    57    26    68 1   
    58    27    32 1   
    59    27    43 1   
    60    27    44 2   
    61    28    29 ar  
    62    28    31 ar  
    63    28    44 1   
    64    29    37 1   
    65    29    38 ar  
    66    30    38 ar  
    67    30    39 ar  
    68    30    69 1   
    69    31    39 ar  
    70    31    43 1   
    71    32    33 3   
    72    33    34 1   
    73    34    40 1   
    74    34    70 1   
    75    34    71 1   
    76    35    36 1   
    77    35    45 1   
    78    35    72 1   
    79    36    46 1   
    80    36    73 1   
    81    37    74 1   
    82    37    75 1   
    83    41    76 1   
    84    42    77 1   
    85    45    78 1   
    86    46    79 1   
    87    59    80 1   
    88    60    80 1   
@<TRIPOS>SUBSTRUCTURE
     1 KHX         1 TEMP              0 ****  ****    0 ROOT
