@<TRIPOS>MOLECULE
KHY
   71    75     1     0     0
SMALL
No Charge or Current Charge


@<TRIPOS>ATOM
      1 C10         -0.2680    -0.5840    -0.3740 ca         1 KHY      -0.116000
      2 C13         -2.6880    -0.8350    -0.3560 ca         1 KHY      -0.135300
      3 C17         -6.8690    -0.7600     1.5400 c6         1 KHY      -0.110900
      4 C20         -4.7610     1.1480     0.7790 c6         1 KHY       0.169300
      5 C21         -8.6380     0.5500     0.1590 c3         1 KHY       0.298000
      6 C28          3.2750    -3.0080     0.0380 cc         1 KHY       0.263900
      7 C01         -3.9620     0.2120    -3.7070 c3         1 KHY       0.157900
      8 C03         -2.6860    -0.3860    -1.6880 ca         1 KHY       0.616300
      9 C05         -0.3720    -0.1400    -1.7100 ca         1 KHY       0.330000
     10 C06          0.7980     0.2090    -2.4020 ca         1 KHY      -0.099000
     11 C07          2.0590     0.1280    -1.7920 ca         1 KHY      -0.071000
     12 C08          2.1800    -0.3040    -0.4530 ca         1 KHY      -0.139300
     13 C09          1.0030    -0.6650     0.2420 ca         1 KHY      -0.048000
     14 C11         -1.4520    -0.9410     0.3090 ca         1 KHY       0.202000
     15 C14         -3.9940    -1.2030     0.3430 c3         1 KHY       0.224100
     16 C16         -5.4970    -0.6680     2.2590 c6         1 KHY       0.169300
     17 C18         -7.2700     0.6090     0.9120 c6         1 KHY      -0.129700
     18 C19         -6.1100     1.1330     0.0130 c6         1 KHY      -0.110900
     19 C25          3.5450    -0.4270     0.2550 c3         1 KHY       0.373900
     20 C27          3.8770    -1.8800     0.5360 cd         1 KHY      -0.216300
     21 C30          4.8440    -3.7410     1.2960 cd         1 KHY       0.412800
     22 C31          5.7550    -4.6900     2.0240 c3         1 KHY      -0.124400
     23 C34          4.6680     0.2690    -0.5470 ca         1 KHY      -0.076300
     24 C35          5.5050    -0.4560    -1.4240 ca         1 KHY      -0.127000
     25 C36          6.5060     0.2110    -2.1450 ca         1 KHY       0.336900
     26 C38          5.9170     2.2660    -1.2250 ca         1 KHY       0.235300
     27 C39          4.8900     1.6640    -0.4670 ca         1 KHY      -0.104000
     28 C40          6.1470     3.7880    -1.1240 c3         1 KHY       0.267700
     29 F22         -9.6380     0.1490     0.9760 f          1 KHY      -0.119000
     30 F23         -8.9890     1.7620    -0.3290 f          1 KHY      -0.119000
     31 F24         -8.6040    -0.3080    -0.8870 f          1 KHY      -0.119000
     32 F41          5.0480     4.4810    -1.5020 f          1 KHY      -0.105333
     33 F42          6.4280     4.1640     0.1460 f          1 KHY      -0.105333
     34 F43          7.1700     4.2310    -1.8950 f          1 KHY      -0.105333
     35 N04         -1.5570    -0.0490    -2.3440 nb         1 KHY      -0.767000
     36 N15         -4.4220    -0.1900     1.3460 n3         1 KHY      -0.716600
     37 N29          3.8650    -4.1490     0.5050 nc         1 KHY      -0.677000
     38 N32          4.9110    -2.3550     1.3420 na         1 KHY      -0.146500
     39 N37          6.7170     1.5430    -2.0530 nb         1 KHY      -0.624000
     40 O02         -3.8870    -0.2910    -2.3590 os         1 KHY      -0.461300
     41 O26          3.4140     0.2300     1.5150 oh         1 KHY      -0.649000
     42 Cl12        -1.3920    -1.5280     1.9820 cl         1 KHY      -0.168000
     43 H171        -6.8330    -1.5400     0.7680 hc         1 KHY       0.061450
     44 H172        -7.6300    -1.0810     2.2640 hc         1 KHY       0.061450
     45 H202        -3.9650     1.5060     0.1100 h1         1 KHY       0.057950
     46 H201        -4.8330     1.8840     1.5940 h1         1 KHY       0.057950
     47 H281         2.4360    -3.0750    -0.6440 h4         1 KHY       0.043100
     48 H011        -5.0020     0.2140    -4.0550 h1         1 KHY       0.051367
     49 H013        -3.5830     1.2400    -3.7630 h1         1 KHY       0.051367
     50 H012        -3.3760    -0.4150    -4.3930 h1         1 KHY       0.051367
     51 H061         0.7240     0.5450    -3.4320 ha         1 KHY       0.136000
     52 H071         2.9310     0.4020    -2.3810 ha         1 KHY       0.123000
     53 H091         1.0970    -1.0160     1.2670 ha         1 KHY       0.139000
     54 H142        -4.7870    -1.3750    -0.3960 h1         1 KHY       0.055200
     55 H141        -3.8460    -2.1720     0.8390 h1         1 KHY       0.055200
     56 H162        -5.5940     0.0210     3.1110 h1         1 KHY       0.057950
     57 H161        -5.2400    -1.6510     2.6800 h1         1 KHY       0.057950
     58 H181        -7.4140     1.3280     1.7310 hc         1 KHY       0.080700
     59 H191        -6.3320     2.1500    -0.3370 hc         1 KHY       0.061450
     60 H192        -6.0210     0.5140    -0.8890 hc         1 KHY       0.061450
     61 H313         6.7800    -4.6140     1.6440 hc         1 KHY       0.055700
     62 H311         5.7720    -4.4680     3.0970 hc         1 KHY       0.055700
     63 H312         5.4280    -5.7300     1.9030 hc         1 KHY       0.055700
     64 H331         5.4270    -1.2280     3.0510 h1         1 KHY       0.056367
     65 H332         6.7790    -2.1480     2.3280 h1         1 KHY       0.056367
     66 H333         6.1830    -0.6710     1.5300 h1         1 KHY       0.056367
     67 H351         5.3900    -1.5270    -1.5620 ha         1 KHY       0.145000
     68 H361         7.1590    -0.3370    -2.8230 h4         1 KHY       0.033100
     69 H391         4.2740     2.2900     0.1720 ha         1 KHY       0.138000
     70 H261         2.8770     1.0290     1.3440 ho         1 KHY       0.457000
     71 C33          5.8840    -1.5530     2.1090 c3         1 KHY       0.058900
@<TRIPOS>BOND
     1     1     9 ar  
     2     1    13 ar  
     3     1    14 ar  
     4     2     8 ar  
     5     2    14 ar  
     6     2    15 1   
     7     3    16 1   
     8     3    17 1   
     9     3    43 1   
    10     3    44 1   
    11     4    18 1   
    12     4    36 1   
    13     4    45 1   
    14     4    46 1   
    15     5    17 1   
    16     5    29 1   
    17     5    30 1   
    18     5    31 1   
    19     6    20 2   
    20     6    37 1   
    21     6    47 1   
    22     7    40 1   
    23     7    48 1   
    24     7    49 1   
    25     7    50 1   
    26     8    35 ar  
    27     8    40 1   
    28     9    10 ar  
    29     9    35 ar  
    30    10    11 ar  
    31    10    51 1   
    32    11    12 ar  
    33    11    52 1   
    34    12    13 ar  
    35    12    19 1   
    36    13    53 1   
    37    14    42 1   
    38    15    36 1   
    39    15    54 1   
    40    15    55 1   
    41    16    36 1   
    42    16    56 1   
    43    16    57 1   
    44    17    18 1   
    45    17    58 1   
    46    18    59 1   
    47    18    60 1   
    48    19    20 1   
    49    19    23 1   
    50    19    41 1   
    51    20    38 1   
    52    21    22 1   
    53    21    37 2   
    54    21    38 1   
    55    22    61 1   
    56    22    62 1   
    57    22    63 1   
    58    23    24 ar  
    59    23    27 ar  
    60    24    25 ar  
    61    24    67 1   
    62    25    39 ar  
    63    25    68 1   
    64    26    27 ar  
    65    26    28 1   
    66    26    39 ar  
    67    27    69 1   
    68    28    32 1   
    69    28    33 1   
    70    28    34 1   
    71    38    71 1   
    72    41    70 1   
    73    64    71 1   
    74    65    71 1   
    75    66    71 1   
@<TRIPOS>SUBSTRUCTURE
     1 KHY         1 TEMP              0 ****  ****    0 ROOT
