@<TRIPOS>MOLECULE
KHY
   71    75     1     0     0
SMALL
bcc


@<TRIPOS>ATOM
      1 C10         -0.2770    -0.6590    -0.3010 ca         1 KHY      -0.181300
      2 C13         -2.7120    -0.7960    -0.3160 ca         1 KHY      -0.200600
      3 C17         -6.7170    -0.2240     1.7820 c6         1 KHY      -0.110900
      4 C20         -4.8410     1.3580     0.2510 c6         1 KHY       0.169300
      5 C21         -8.6310     0.6580     0.4010 c3         1 KHY       0.661900
      6 C28          3.4140    -3.1510    -0.2320 cc         1 KHY       0.329200
      7 C01         -3.7330    -0.4570    -3.8050 c3         1 KHY       0.134700
      8 C03         -2.6120    -0.6450    -1.7370 ca         1 KHY       0.681600
      9 C05         -0.3340    -0.5270    -1.7060 ca         1 KHY       0.460600
     10 C06          0.8740    -0.4070    -2.4190 ca         1 KHY      -0.182300
     11 C07          2.0770    -0.4160    -1.7660 ca         1 KHY      -0.089000
     12 C08          2.1400    -0.5470    -0.3650 ca         1 KHY      -0.139300
     13 C09          0.9720    -0.6690     0.3470 ca         1 KHY      -0.066000
     14 C11         -1.5290    -0.7860     0.3630 ca         1 KHY       0.110400
     15 C14         -4.0370    -0.9330     0.3870 c3         1 KHY       0.224100
     16 C16         -5.2800     0.0750     2.2130 c6         1 KHY       0.169300
     17 C18         -7.2230     0.9070     0.8810 c6         1 KHY      -0.129700
     18 C19         -6.2570     1.1400    -0.2860 c6         1 KHY      -0.110900
     19 C25          3.4790    -0.6190     0.3730 c3         1 KHY       0.350700
     20 C27          3.9290    -2.0490     0.3870 cd         1 KHY      -0.230900
     21 C30          5.1370    -3.8330     0.8260 cd         1 KHY       0.412800
     22 C31          6.2000    -4.6960     1.4040 c3         1 KHY      -0.124400
     23 C34          4.5030     0.2760    -0.3340 ca         1 KHY      -0.076300
     24 C35          5.3810    -0.2180    -1.2860 ca         1 KHY      -0.210300
     25 C36          6.2680     0.6500    -1.9100 ca         1 KHY       0.402200
     26 C38          5.4770     2.4120    -0.7370 ca         1 KHY       0.300600
     27 C39          4.5580     1.6390    -0.0550 ca         1 KHY      -0.187300
     28 C40          5.6040     3.8930    -0.5000 c3         1 KHY       0.631600
     29 F22         -9.4950     0.4960     1.4180 f          1 KHY      -0.240300
     30 F23         -9.1050     1.6750    -0.3380 f          1 KHY      -0.240300
     31 F24         -8.7340    -0.4440    -0.3610 f          1 KHY      -0.240300
     32 F41          5.3920     4.5820    -1.6260 f          1 KHY      -0.226633
     33 F42          4.7360     4.3400     0.4100 f          1 KHY      -0.226633
     34 F43          6.8300     4.2110    -0.0730 f          1 KHY      -0.226633
     35 N04         -1.5000    -0.5170    -2.3910 nb         1 KHY      -0.767000
     36 N15         -4.3660     0.2860     1.1080 n3         1 KHY      -0.716600
     37 N29          4.1700    -4.2500     0.0440 nc         1 KHY      -0.677000
     38 N32          5.0440    -2.5000     1.0580 na         1 KHY      -0.167900
     39 N37          6.3220     1.9430    -1.6450 nb         1 KHY      -0.624000
     40 O02         -3.7660    -0.6350    -2.3950 os         1 KHY      -0.438100
     41 O26          3.3420    -0.2340     1.7200 oh         1 KHY      -0.586800
     42 CL12        -1.5370    -0.9550     2.0790 cl         1 KHY      -0.076400
     43 H171        -6.7510    -1.1820     1.2550 hc         1 KHY       0.061450
     44 H172        -7.3430    -0.3240     2.6700 hc         1 KHY       0.061450
     45 H202        -4.1460     1.4980    -0.5780 h1         1 KHY       0.057950
     46 H201        -4.8200     2.2870     0.8310 h1         1 KHY       0.057950
     47 H281         2.5430    -3.2040    -0.8670 h4         1 KHY       0.043100
     48 H011        -4.7700    -0.4760    -4.1290 h1         1 KHY       0.051367
     49 H013        -3.2840     0.4990    -4.0760 h1         1 KHY       0.051367
     50 H012        -3.1820    -1.2570    -4.2980 h1         1 KHY       0.051367
     51 H061         0.8320    -0.3090    -3.4960 ha         1 KHY       0.154000
     52 H071         2.9840    -0.3250    -2.3500 ha         1 KHY       0.141000
     53 H091         1.0040    -0.7940     1.4210 ha         1 KHY       0.157000
     54 H142        -4.8060    -1.2460    -0.3250 h1         1 KHY       0.055200
     55 H141        -3.9570    -1.7450     1.1140 h1         1 KHY       0.055200
     56 H162        -5.2740     0.9800     2.8300 h1         1 KHY       0.057950
     57 H161        -4.9000    -0.7340     2.8400 h1         1 KHY       0.057950
     58 H181        -7.2650     1.8250     1.4800 hc         1 KHY       0.080700
     59 H191        -6.5510     2.0170    -0.8650 hc         1 KHY       0.061450
     60 H192        -6.2690     0.2860    -0.9680 hc         1 KHY       0.061450
     61 H313         7.1980    -4.3880     1.0870 hc         1 KHY       0.055700
     62 H311         6.1850    -4.6860     2.4950 hc         1 KHY       0.055700
     63 H312         6.0430    -5.7200     1.0740 hc         1 KHY       0.055700
     64 H331         5.4780    -1.5800     2.8990 h1         1 KHY       0.056367
     65 H332         6.8590    -2.2740     2.0430 h1         1 KHY       0.056367
     66 H333         6.1540    -0.7720     1.4770 h1         1 KHY       0.056367
     67 H351         5.3880    -1.2670    -1.5520 ha         1 KHY       0.163000
     68 H361         6.9620     0.2740    -2.6520 h4         1 KHY       0.033100
     69 H391         3.9010     2.0950     0.6730 ha         1 KHY       0.156000
     70 H261         2.8490     0.5930     1.7820 ho         1 KHY       0.418000
     71 C33          5.9230    -1.7370     1.9190 c3         1 KHY       0.029600
@<TRIPOS>BOND
     1     1     9 ar  
     2     1    13 ar  
     3     1    14 ar  
     4     2     8 ar  
     5     2    14 ar  
     6     2    15 1   
     7     3    16 1   
     8     3    17 1   
     9     3    43 1   
    10     3    44 1   
    11     4    18 1   
    12     4    36 1   
    13     4    45 1   
    14     4    46 1   
    15     5    17 1   
    16     5    29 1   
    17     5    30 1   
    18     5    31 1   
    19     6    20 2   
    20     6    37 1   
    21     6    47 1   
    22     7    40 1   
    23     7    48 1   
    24     7    49 1   
    25     7    50 1   
    26     8    35 ar  
    27     8    40 1   
    28     9    10 ar  
    29     9    35 ar  
    30    10    11 ar  
    31    10    51 1   
    32    11    12 ar  
    33    11    52 1   
    34    12    13 ar  
    35    12    19 1   
    36    13    53 1   
    37    14    42 1   
    38    15    36 1   
    39    15    54 1   
    40    15    55 1   
    41    16    36 1   
    42    16    56 1   
    43    16    57 1   
    44    17    18 1   
    45    17    58 1   
    46    18    59 1   
    47    18    60 1   
    48    19    20 1   
    49    19    23 1   
    50    19    41 1   
    51    20    38 1   
    52    21    22 1   
    53    21    37 2   
    54    21    38 1   
    55    22    61 1   
    56    22    62 1   
    57    22    63 1   
    58    23    24 ar  
    59    23    27 ar  
    60    24    25 ar  
    61    24    67 1   
    62    25    39 ar  
    63    25    68 1   
    64    26    27 ar  
    65    26    28 1   
    66    26    39 ar  
    67    27    69 1   
    68    28    32 1   
    69    28    33 1   
    70    28    34 1   
    71    38    71 1   
    72    41    70 1   
    73    64    71 1   
    74    65    71 1   
    75    66    71 1   
@<TRIPOS>SUBSTRUCTURE
     1 KHY         1 TEMP              0 ****  ****    0 ROOT
