@<TRIPOS>MOLECULE
KHZ
   14    14     1     0     0
SMALL
bcc


@<TRIPOS>ATOM
      1 C1         -13.8180     2.3690    -0.3040 cc         1 KHZ       0.360800
      2 N          -11.0230     2.2800    -0.8760 n8         1 KHZ      -0.681600
      3 C          -13.1490     1.2900    -1.0890 c3         1 KHZ       0.136500
      4 N1         -11.7660     1.0720    -0.7150 n7         1 KHZ      -0.577000
      5 N2         -14.2300     2.3000     0.9410 nd         1 KHZ      -0.399000
      6 N3         -14.7080     3.5060     1.2470 nd         1 KHZ      -0.046000
      7 N4         -14.6110     4.3040     0.2570 nc         1 KHZ      -0.205800
      8 N5         -14.0570     3.6120    -0.7210 na         1 KHZ      -0.146400
      9 H1         -10.5950     2.5300     0.0050 hn         1 KHZ       0.348800
     10 H2         -10.2550     2.0670    -1.5000 hn         1 KHZ       0.348800
     11 H3         -13.1950     1.5320    -2.1520 h1         1 KHZ       0.079200
     12 H4         -13.6950     0.3560    -0.9470 h1         1 KHZ       0.079200
     13 H5         -11.7310     0.7800     0.2530 hn         1 KHZ       0.361800
     14 H6         -13.8610     4.0400    -1.6150 hn         1 KHZ       0.339700
@<TRIPOS>BOND
     1     1     3 1   
     2     1     5 2   
     3     1     8 1   
     4     2     4 1   
     5     2     9 1   
     6     2    10 1   
     7     3     4 1   
     8     3    11 1   
     9     3    12 1   
    10     4    13 1   
    11     5     6 1   
    12     6     7 2   
    13     7     8 1   
    14     8    14 1   
@<TRIPOS>SUBSTRUCTURE
     1 KHZ         1 TEMP              0 ****  ****    0 ROOT
