@<TRIPOS>MOLECULE
KHZ
   14    14     1     0     0
SMALL
No Charge or Current Charge


@<TRIPOS>ATOM
      1 C1         -13.9270     2.3290    -0.2470 cc         1 KHZ       0.360800
      2 N          -10.8800     2.2190    -1.1880 n8         1 KHZ      -0.792000
      3 C          -13.2120     1.2300    -1.0130 c3         1 KHZ       0.136500
      4 N1         -11.7470     1.1270    -0.7090 n7         1 KHZ      -0.632200
      5 N2         -14.7800     2.1810     0.7480 nd         1 KHZ      -0.399000
      6 N3         -15.1820     3.4460     1.1110 nd         1 KHZ      -0.046000
      7 N4         -14.6130     4.3640     0.3770 nc         1 KHZ      -0.205800
      8 N5         -13.8230     3.6690    -0.4800 na         1 KHZ      -0.196700
      9 H1         -10.6430     2.9220    -0.4650 hn         1 KHZ       0.404000
     10 H2          -9.9850     1.8910    -1.5930 hn         1 KHZ       0.404000
     11 H3         -13.3680     1.4050    -2.0860 h1         1 KHZ       0.079200
     12 H4         -13.7100     0.2800    -0.7780 h1         1 KHZ       0.079200
     13 H5         -11.5830     0.8580     0.2850 hn         1 KHZ       0.417000
     14 H6         -13.2410     4.1180    -1.1780 hn         1 KHZ       0.390000
@<TRIPOS>BOND
     1     1     3 1   
     2     1     5 2   
     3     1     8 1   
     4     2     4 1   
     5     2     9 1   
     6     2    10 1   
     7     3     4 1   
     8     3    11 1   
     9     3    12 1   
    10     4    13 1   
    11     5     6 1   
    12     6     7 2   
    13     7     8 1   
    14     8    14 1   
@<TRIPOS>SUBSTRUCTURE
     1 KHZ         1 TEMP              0 ****  ****    0 ROOT
