@<TRIPOS>MOLECULE
KI0
   56    59     1     0     0
SMALL
bcc


@<TRIPOS>ATOM
      1 C10          1.9170    -2.7730    82.6440 ca         1 KI0      -0.167600
      2 C13         -0.0560    -1.3690    84.0110 ca         1 KI0       0.132600
      3 C15          0.5920    -3.1500    82.4660 ca         1 KI0       0.073700
      4 C22         -4.1160    -2.5020    83.8430 c3         1 KI0       0.163000
      5 C26         -4.2480    -4.0000    84.0330 ca         1 KI0      -0.079300
      6 C28         -5.2370    -6.1360    83.4860 ca         1 KI0      -0.130000
      7 C1           5.5710    -6.2410    81.7570 c6         1 KI0      -0.075200
      8 C2           5.5700    -6.5540    83.2420 c6         1 KI0      -0.064400
      9 C3           4.1470    -6.5760    83.7700 c6         1 KI0      -0.183400
     10 C4           3.4020    -5.2890    83.5040 c          1 KI0       0.610300
     11 C5           3.7400    -4.5660    82.2710 ce         1 KI0      -0.496400
     12 C6           4.7630    -5.0300    81.4450 c2         1 KI0       0.289900
     13 C9           3.0220    -3.3860    81.8460 c          1 KI0       0.639900
     14 C11          2.2510    -1.7130    83.4770 ca         1 KI0      -0.028000
     15 C12          1.2860    -1.0190    84.1690 ca         1 KI0      -0.197000
     16 C14         -0.4040    -2.4220    83.1540 ca         1 KI0      -0.209600
     17 C16         -1.8280    -2.7270    82.9840 c          1 KI0       0.737100
     18 C19         -2.3590    -1.0250    84.6720 c          1 KI0       0.832500
     19 C23          0.2840    -4.3250    81.5810 c3         1 KI0      -0.055800
     20 C27         -5.0900    -4.7750    83.2440 ca         1 KI0      -0.111000
     21 C29         -4.5400    -6.7440    84.5190 ca         1 KI0      -0.126000
     22 C30         -3.7010    -5.9760    85.3180 ca         1 KI0      -0.130000
     23 C31         -3.5640    -4.6170    85.0790 ca         1 KI0      -0.111000
     24 C32         -4.8590    -1.9090    82.6550 c3         1 KI0      -0.101100
     25 N17         -1.0380    -0.6650    84.6880 n          1 KI0      -0.370000
     26 N18         -2.6960    -2.0970    83.8620 n          1 KI0      -0.510400
     27 O7           5.0690    -4.4390    80.3350 oh         1 KI0      -0.500100
     28 O20         -2.2680    -3.4930    82.1540 o          1 KI0      -0.588500
     29 O21          3.3150    -2.8020    80.7920 o          1 KI0      -0.595100
     30 O25         -3.1980    -0.4350    85.3230 o          1 KI0      -0.638500
     31 H1          -4.5430    -2.0500    84.7360 h1         1 KI0       0.086700
     32 H5          -5.8950    -6.7210    82.8570 ha         1 KI0       0.128500
     33 H6           5.1350    -7.0750    81.1940 hc         1 KI0       0.080700
     34 H7           6.5820    -6.1030    81.3700 hc         1 KI0       0.080700
     35 H8           6.0510    -7.5160    83.4160 hc         1 KI0       0.056200
     36 H9           6.1570    -5.8040    83.7780 hc         1 KI0       0.056200
     37 H10          4.1170    -6.7800    84.8410 hc         1 KI0       0.072700
     38 H11          3.5850    -7.3810    83.2800 hc         1 KI0       0.072700
     39 H14          3.2890    -1.4290    83.6020 ha         1 KI0       0.138000
     40 H15          1.5880    -0.2150    84.8210 ha         1 KI0       0.144000
     41 H16         -0.3280    -5.0640    82.0930 hc         1 KI0       0.058367
     42 H17         -0.2550    -4.0260    80.6830 hc         1 KI0       0.058367
     43 H18          1.1940    -4.8270    81.2610 hc         1 KI0       0.058367
     44 H19         -5.6390    -4.3290    82.4250 ha         1 KI0       0.131500
     45 H20         -4.6510    -7.8040    84.7050 ha         1 KI0       0.128000
     46 H21         -3.1560    -6.4350    86.1320 ha         1 KI0       0.128500
     47 H22         -2.9100    -4.0320    85.7170 ha         1 KI0       0.131500
     48 H23         -5.9310    -2.0710    82.7670 hc         1 KI0       0.048700
     49 H24         -4.6980    -0.8310    82.6230 hc         1 KI0       0.048700
     50 H25         -4.5470    -2.3320    81.7030 hc         1 KI0       0.048700
     51 H26          4.4380    -3.6480    80.2420 ho         1 KI0       0.510000
     52 C24         -0.6560     0.4870    85.4920 c3         1 KI0       0.084300
     53 O8           2.5430    -4.9020    84.2730 o          1 KI0      -0.532100
     54 H2          -1.5450     0.9720    85.8720 h1         1 KI0       0.057033
     55 H3          -0.0380     0.1830    86.3360 h1         1 KI0       0.057033
     56 H4          -0.1040     1.2030    84.8840 h1         1 KI0       0.057033
@<TRIPOS>BOND
     1     1     3 ar  
     2     1    13 1   
     3     1    14 ar  
     4     2    15 ar  
     5     2    16 ar  
     6     2    25 1   
     7     3    16 ar  
     8     3    19 1   
     9     4     5 1   
    10     4    24 1   
    11     4    26 1   
    12     4    31 1   
    13     5    20 ar  
    14     5    23 ar  
    15     6    20 ar  
    16     6    21 ar  
    17     6    32 1   
    18     7     8 1   
    19     7    12 1   
    20     7    33 1   
    21     7    34 1   
    22     8     9 1   
    23     8    35 1   
    24     8    36 1   
    25     9    10 1   
    26     9    37 1   
    27     9    38 1   
    28    10    11 1   
    29    10    53 2   
    30    11    12 2   
    31    11    13 1   
    32    12    27 1   
    33    13    29 2   
    34    14    15 ar  
    35    14    39 1   
    36    15    40 1   
    37    16    17 1   
    38    17    26 1   
    39    17    28 2   
    40    18    25 1   
    41    18    26 1   
    42    18    30 2   
    43    19    41 1   
    44    19    42 1   
    45    19    43 1   
    46    20    44 1   
    47    21    22 ar  
    48    21    45 1   
    49    22    23 ar  
    50    22    46 1   
    51    23    47 1   
    52    24    48 1   
    53    24    49 1   
    54    24    50 1   
    55    25    52 1   
    56    27    51 1   
    57    52    54 1   
    58    52    55 1   
    59    52    56 1   
@<TRIPOS>SUBSTRUCTURE
     1 KI0         1 TEMP              0 ****  ****    0 ROOT
