@<TRIPOS>MOLECULE
KI0
   56    59     1     0     0
SMALL
No Charge or Current Charge


@<TRIPOS>ATOM
      1 C10          2.2730    -2.2770    82.8400 ca         1 KI0      -0.167600
      2 C13         -0.0060    -1.0120    83.9430 ca         1 KI0       0.132600
      3 C15          0.9740    -2.7670    82.5270 ca         1 KI0       0.073700
      4 C22         -3.9560    -2.7960    83.8090 c3         1 KI0       0.163000
      5 C26         -3.9360    -4.2880    84.1890 ca         1 KI0      -0.079300
      6 C28         -4.3410    -6.6570    83.7180 ca         1 KI0      -0.112000
      7 C1           4.6610    -6.5410    81.4210 c6         1 KI0      -0.075200
      8 C2           4.3590    -7.2240    82.7730 c6         1 KI0      -0.064400
      9 C3           3.0600    -6.6500    83.3750 c6         1 KI0      -0.183400
     10 C4           3.1580    -5.1310    83.5430 c          1 KI0       0.610300
     11 C5           3.7580    -4.3760    82.4120 ce         1 KI0      -0.496400
     12 C6           4.4610    -5.0320    81.4620 c2         1 KI0       0.289900
     13 C9           3.5500    -2.9040    82.3420 c          1 KI0       0.639900
     14 C11          2.4140    -1.1690    83.6830 ca         1 KI0      -0.010000
     15 C12          1.2930    -0.5490    84.2310 ca         1 KI0      -0.179000
     16 C14         -0.1720    -2.1730    83.1580 ca         1 KI0      -0.209600
     17 C16         -1.5710    -2.7580    83.0530 c          1 KI0       0.594600
     18 C19         -2.4220    -0.9830    84.5500 c          1 KI0       0.623000
     19 C23          0.8350    -3.8800    81.4760 c3         1 KI0      -0.055800
     20 C27         -4.3820    -5.3090    83.3170 ca         1 KI0      -0.093000
     21 C29         -3.8560    -7.0010    84.9890 ca         1 KI0      -0.108000
     22 C30         -3.4100    -5.9960    85.8620 ca         1 KI0      -0.112000
     23 C31         -3.4510    -4.6490    85.4640 ca         1 KI0      -0.093000
     24 C32         -4.7670    -2.4320    82.5440 c3         1 KI0      -0.101100
     25 N17         -1.1410    -0.4050    84.5780 n          1 KI0      -0.303000
     26 N18         -2.6000    -2.1500    83.7970 n          1 KI0      -0.376400
     27 O7           5.0430    -4.4090    80.4340 oh         1 KI0      -0.539100
     28 O20         -1.8110    -3.7290    82.3520 o          1 KI0      -0.513000
     29 O21          4.3650    -2.2180    81.7370 o          1 KI0      -0.595100
     30 O25         -3.3530    -0.4670    85.1570 o          1 KI0      -0.563000
     31 H1          -4.5420    -2.3580    84.6260 h1         1 KI0       0.086700
     32 H5          -4.6840    -7.4340    83.0390 ha         1 KI0       0.110500
     33 H6           4.0020    -6.9570    80.6460 hc         1 KI0       0.080700
     34 H7           5.6880    -6.7780    81.1100 hc         1 KI0       0.080700
     35 H8           4.2750    -8.3120    82.6400 hc         1 KI0       0.056200
     36 H9           5.1920    -7.0540    83.4690 hc         1 KI0       0.056200
     37 H10          2.7770    -7.1240    84.3240 hc         1 KI0       0.072700
     38 H11          2.2690    -6.8340    82.6370 hc         1 KI0       0.072700
     39 H14          3.4060    -0.7940    83.9320 ha         1 KI0       0.120000
     40 H15          1.4630     0.2920    84.8960 ha         1 KI0       0.126000
     41 H16          0.6070    -4.8460    81.9400 hc         1 KI0       0.058367
     42 H17          0.0450    -3.6450    80.7540 hc         1 KI0       0.058367
     43 H18          1.7280    -4.0060    80.8560 hc         1 KI0       0.058367
     44 H19         -4.7550    -5.0750    82.3240 ha         1 KI0       0.113500
     45 H20         -3.8240    -8.0440    85.2970 ha         1 KI0       0.110000
     46 H21         -3.0330    -6.2600    86.8470 ha         1 KI0       0.110500
     47 H22         -3.1020    -3.8800    86.1500 ha         1 KI0       0.113500
     48 H23         -5.7870    -2.8270    82.6110 hc         1 KI0       0.048700
     49 H24         -4.8340    -1.3430    82.4360 hc         1 KI0       0.048700
     50 H25         -4.2960    -2.8330    81.6390 hc         1 KI0       0.048700
     51 H26          4.9490    -3.4450    80.6470 ho         1 KI0       0.549000
     52 C24         -0.9900     0.9380    85.2080 c3         1 KI0       0.084300
     53 O8           2.7670    -4.5880    84.5630 o          1 KI0      -0.532100
     54 H2          -1.9520     1.4560    85.3040 h1         1 KI0       0.057033
     55 H3          -0.5460     0.8290    86.2050 h1         1 KI0       0.057033
     56 H4          -0.3440     1.5720    84.5880 h1         1 KI0       0.057033
@<TRIPOS>BOND
     1     1     3 ar  
     2     1    13 1   
     3     1    14 ar  
     4     2    15 ar  
     5     2    16 ar  
     6     2    25 1   
     7     3    16 ar  
     8     3    19 1   
     9     4     5 1   
    10     4    24 1   
    11     4    26 1   
    12     4    31 1   
    13     5    20 ar  
    14     5    23 ar  
    15     6    20 ar  
    16     6    21 ar  
    17     6    32 1   
    18     7     8 1   
    19     7    12 1   
    20     7    33 1   
    21     7    34 1   
    22     8     9 1   
    23     8    35 1   
    24     8    36 1   
    25     9    10 1   
    26     9    37 1   
    27     9    38 1   
    28    10    11 1   
    29    10    53 2   
    30    11    12 2   
    31    11    13 1   
    32    12    27 1   
    33    13    29 2   
    34    14    15 ar  
    35    14    39 1   
    36    15    40 1   
    37    16    17 1   
    38    17    26 1   
    39    17    28 2   
    40    18    25 1   
    41    18    26 1   
    42    18    30 2   
    43    19    41 1   
    44    19    42 1   
    45    19    43 1   
    46    20    44 1   
    47    21    22 ar  
    48    21    45 1   
    49    22    23 ar  
    50    22    46 1   
    51    23    47 1   
    52    24    48 1   
    53    24    49 1   
    54    24    50 1   
    55    25    52 1   
    56    27    51 1   
    57    52    54 1   
    58    52    55 1   
    59    52    56 1   
@<TRIPOS>SUBSTRUCTURE
     1 KI0         1 TEMP              0 ****  ****    0 ROOT
