@<TRIPOS>MOLECULE
KI2
   42    43     1     0     0
SMALL
No Charge or Current Charge


@<TRIPOS>ATOM
      1 O1          -2.5100    -3.6890     1.4320 os         1 KI2      -0.467100
      2 C2          -3.0810    -6.2570     5.6720 ca         1 KI2      -0.113000
      3 C3          -2.9570    -6.9840     4.4760 ca         1 KI2      -0.120500
      4 C4          -3.1700    -6.3480     3.2400 ca         1 KI2      -0.088500
      5 C5          -3.5100    -4.9810     3.1930 ca         1 KI2      -0.079300
      6 C6          -3.6300    -4.2570     4.3960 ca         1 KI2      -0.088500
      7 C7          -3.4170    -4.8930     5.6320 ca         1 KI2      -0.120500
      8 C8          -2.5210    -2.9960     0.2610 c          1 KI2       0.636100
      9 O9          -3.4850    -2.8550    -0.4760 o          1 KI2      -0.549000
     10 N10         -1.2750    -2.4800     0.0430 ns         1 KI2      -0.446900
     11 C11         -0.9010    -1.6220    -1.0870 c3         1 KI2       0.101700
     12 C12         -0.8820    -0.1290    -0.6680 c3         1 KI2      -0.073100
     13 C13         -2.2200     0.3520    -0.1160 ca         1 KI2      -0.060300
     14 C14         -3.2590     0.7150    -0.9940 ca         1 KI2      -0.101500
     15 C15         -4.4970     1.1480    -0.4890 ca         1 KI2      -0.113500
     16 C16         -4.7040     1.2200     0.8990 ca         1 KI2      -0.123000
     17 C17         -3.6720     0.8590     1.7810 ca         1 KI2      -0.113500
     18 C18         -2.4330     0.4270     1.2750 ca         1 KI2      -0.101500
     19 C19         -3.7430    -4.2910     1.8560 c3         1 KI2       0.228900
     20 C21          0.4330    -2.0870    -1.7370 c3         1 KI2       0.012300
     21 O22          1.5080    -2.1150    -0.7500 oh         1 KI2      -0.631000
     22 C            0.2250    -3.4480    -2.5020 c          1 KI2       0.734000
     23 O            0.4150    -4.5080    -1.9140 o          1 KI2      -0.708500
     24 OXT         -0.0310    -3.3920    -3.6980 o          1 KI2      -0.708500
     25 H4          -3.0700    -6.9180     2.3180 ha         1 KI2       0.117000
     26 H6          -3.8880    -3.2000     4.3730 ha         1 KI2       0.117000
     27 H7          -3.5120    -4.3290     6.5570 ha         1 KI2       0.105000
     28 H10         -0.5690    -2.7150     0.7270 hn         1 KI2       0.322500
     29 H11         -1.6760    -1.7220    -1.8600 h1         1 KI2       0.108700
     30 H121        -0.6050     0.4810    -1.5360 hc         1 KI2       0.042200
     31 H122        -0.0930     0.0310     0.0770 hc         1 KI2       0.042200
     32 H14         -3.1090     0.6580    -2.0700 ha         1 KI2       0.112000
     33 H15         -5.2960     1.4260    -1.1720 ha         1 KI2       0.100000
     34 H16         -5.6620     1.5540     1.2900 ha         1 KI2       0.098000
     35 H17         -3.8310     0.9130     2.8560 ha         1 KI2       0.100000
     36 H18         -1.6410     0.1450     1.9650 ha         1 KI2       0.112000
     37 H191        -4.0920    -5.0250     1.1170 h1         1 KI2       0.052200
     38 H192        -4.5270    -3.5300     1.9710 h1         1 KI2       0.052200
     39 H21          0.6920    -1.3490    -2.5090 h1         1 KI2       0.017700
     40 H22          1.6400    -1.1970    -0.4340 ho         1 KI2       0.387000
     41 H2          -2.9160    -6.7490     6.6280 ha         1 KI2       0.102000
     42 H3          -2.6960    -8.0390     4.5060 ha         1 KI2       0.105000
@<TRIPOS>BOND
     1     1     8 1   
     2     1    19 1   
     3     2     3 ar  
     4     2     7 ar  
     5     2    41 1   
     6     3     4 ar  
     7     3    42 1   
     8     4     5 ar  
     9     4    25 1   
    10     5     6 ar  
    11     5    19 1   
    12     6     7 ar  
    13     6    26 1   
    14     7    27 1   
    15     8     9 2   
    16     8    10 1   
    17    10    11 1   
    18    10    28 1   
    19    11    12 1   
    20    11    20 1   
    21    11    29 1   
    22    12    13 1   
    23    12    30 1   
    24    12    31 1   
    25    13    14 ar  
    26    13    18 ar  
    27    14    15 ar  
    28    14    32 1   
    29    15    16 ar  
    30    15    33 1   
    31    16    17 ar  
    32    16    34 1   
    33    17    18 ar  
    34    17    35 1   
    35    18    36 1   
    36    19    37 1   
    37    19    38 1   
    38    20    21 1   
    39    20    22 1   
    40    20    39 1   
    41    21    40 1   
    42    22    23 1   
    43    22    24 1   
@<TRIPOS>SUBSTRUCTURE
     1 KI2         1 TEMP              0 ****  ****    0 ROOT
