@<TRIPOS>MOLECULE
KI2
   42    43     1     0     0
SMALL
abcg2


@<TRIPOS>ATOM
      1 O1          -2.4150    -3.7970     1.1580 os         1 KI2      -0.467100
      2 C2          -3.3470    -5.5740     5.6330 ca         1 KI2      -0.113000
      3 C3          -3.5660    -6.5060     4.6300 ca         1 KI2      -0.120500
      4 C4          -3.6750    -6.0920     3.3080 ca         1 KI2      -0.088500
      5 C5          -3.5750    -4.7460     2.9770 ca         1 KI2      -0.079300
      6 C6          -3.3560    -3.8150     3.9910 ca         1 KI2      -0.088500
      7 C7          -3.2410    -4.2250     5.3110 ca         1 KI2      -0.120500
      8 C8          -2.3610    -3.1080     0.0070 c          1 KI2       0.636100
      9 O9          -3.3050    -2.9850    -0.7430 o          1 KI2      -0.549000
     10 N10         -1.1230    -2.6190    -0.1920 ns         1 KI2      -0.446900
     11 C11         -0.8330    -1.6060    -1.1830 c3         1 KI2       0.101700
     12 C12         -0.9040    -0.1990    -0.5640 c3         1 KI2      -0.073100
     13 C13         -2.2220     0.0590     0.1080 ca         1 KI2      -0.060300
     14 C14         -3.3190     0.5140    -0.6190 ca         1 KI2      -0.101500
     15 C15         -4.5510     0.6970    -0.0080 ca         1 KI2      -0.113500
     16 C16         -4.7090     0.4180     1.3440 ca         1 KI2      -0.123000
     17 C17         -3.6220    -0.0330     2.0800 ca         1 KI2      -0.113500
     18 C18         -2.3890    -0.2060     1.4650 ca         1 KI2      -0.101500
     19 C19         -3.6950    -4.2920     1.5530 c3         1 KI2       0.228900
     20 C21          0.5300    -1.8870    -1.8250 c3         1 KI2       0.012300
     21 O22          1.5660    -1.8680    -0.8690 oh         1 KI2      -0.631000
     22 C            0.4970    -3.2480    -2.5540 c          1 KI2       0.734000
     23 O            1.3040    -4.1200    -2.1960 o          1 KI2      -0.708500
     24 OXT         -0.3570    -3.3300    -3.4580 o          1 KI2      -0.708500
     25 H4          -3.8400    -6.8250     2.5270 ha         1 KI2       0.117000
     26 H6          -3.2790    -2.7610     3.7500 ha         1 KI2       0.117000
     27 H7          -3.0720    -3.4930     6.0900 ha         1 KI2       0.105000
     28 H10         -0.4530    -2.7220     0.5560 hn         1 KI2       0.322500
     29 H11         -1.5830    -1.6820    -1.9690 h1         1 KI2       0.108700
     30 H121        -0.7300     0.5350    -1.3550 hc         1 KI2       0.042200
     31 H122        -0.1020    -0.0770     0.1700 hc         1 KI2       0.042200
     32 H14         -3.2070     0.7270    -1.6760 ha         1 KI2       0.112000
     33 H15         -5.3920     1.0560    -0.5880 ha         1 KI2       0.100000
     34 H16         -5.6710     0.5590     1.8210 ha         1 KI2       0.098000
     35 H17         -3.7320    -0.2450     3.1360 ha         1 KI2       0.100000
     36 H18         -1.5420    -0.5470     2.0500 ha         1 KI2       0.112000
     37 H191        -4.0030    -5.1190     0.9090 h1         1 KI2       0.052200
     38 H192        -4.4440    -3.5010     1.4640 h1         1 KI2       0.052200
     39 H21          0.6910    -1.1090    -2.5870 h1         1 KI2       0.017700
     40 H22          1.7660    -0.9520    -0.6580 ho         1 KI2       0.387000
     41 H2          -3.2600    -5.8930     6.6640 ha         1 KI2       0.102000
     42 H3          -3.6490    -7.5580     4.8720 ha         1 KI2       0.105000
@<TRIPOS>BOND
     1     1     8 1   
     2     1    19 1   
     3     2     3 ar  
     4     2     7 ar  
     5     2    41 1   
     6     3     4 ar  
     7     3    42 1   
     8     4     5 ar  
     9     4    25 1   
    10     5     6 ar  
    11     5    19 1   
    12     6     7 ar  
    13     6    26 1   
    14     7    27 1   
    15     8     9 2   
    16     8    10 1   
    17    10    11 1   
    18    10    28 1   
    19    11    12 1   
    20    11    20 1   
    21    11    29 1   
    22    12    13 1   
    23    12    30 1   
    24    12    31 1   
    25    13    14 ar  
    26    13    18 ar  
    27    14    15 ar  
    28    14    32 1   
    29    15    16 ar  
    30    15    33 1   
    31    16    17 ar  
    32    16    34 1   
    33    17    18 ar  
    34    17    35 1   
    35    18    36 1   
    36    19    37 1   
    37    19    38 1   
    38    20    21 1   
    39    20    22 1   
    40    20    39 1   
    41    21    40 1   
    42    22    23 1   
    43    22    24 1   
@<TRIPOS>SUBSTRUCTURE
     1 KI2         1 TEMP              0 ****  ****    0 ROOT
