@<TRIPOS>MOLECULE
KI3
   32    34     1     0     0
SMALL
abcg2


@<TRIPOS>ATOM
      1 O01         -4.5530    -2.3930    -0.4050 oh         1 KI3      -0.626300
      2 C02         -3.7060    -1.3800    -0.2450 ca         1 KI3       0.620300
      3 C03         -4.1530    -0.0620    -0.0420 ca         1 KI3      -0.279000
      4 C04         -3.2440     0.9620     0.1150 ca         1 KI3       0.060700
      5 C05         -3.7430     2.3540     0.3470 c3         1 KI3      -0.066800
      6 C06         -1.8740     0.6210     0.0600 ca         1 KI3      -0.225800
      7 C07         -1.5650    -0.7320    -0.1330 ca         1 KI3       0.456300
      8 N08         -2.4360    -1.7170    -0.2870 nb         1 KI3      -0.686000
      9 S09          0.1290    -1.0530    -0.1400 ss         1 KI3      -0.071900
     10 C10          0.4800     0.6530     0.1110 cc         1 KI3      -0.316600
     11 C11         -0.6820     1.4260     0.1810 cd         1 KI3       0.306800
     12 N12         -0.6760     2.7520     0.3590 nv         1 KI3      -0.945000
     13 C13          1.8150     1.1680     0.1340 c          1 KI3       0.637900
     14 O14          2.0570     2.3770     0.1600 o          1 KI3      -0.588100
     15 C15          2.9570     0.2060     0.0960 ca         1 KI3      -0.155600
     16 C16          3.9870     0.4160    -0.8190 ca         1 KI3      -0.073000
     17 C17          5.0770    -0.4400    -0.8510 ca         1 KI3      -0.118000
     18 C18          5.1620    -1.4960     0.0490 ca         1 KI3      -0.094000
     19 C19          4.1510    -1.6940     0.9790 ca         1 KI3      -0.118000
     20 C20          3.0480    -0.8510     0.9990 ca         1 KI3      -0.073000
     21 H011        -5.4680    -2.0890    -0.3620 ho         1 KI3       0.476000
     22 H031        -5.2150     0.1470    -0.0010 ha         1 KI3       0.123000
     23 H052        -3.4560     3.0250    -0.4650 hc         1 KI3       0.053033
     24 H053        -4.8290     2.3690     0.4040 hc         1 KI3       0.053033
     25 H051        -3.3600     2.7670     1.2810 hc         1 KI3       0.053033
     26 H122         0.2110     3.2290     0.3150 hn         1 KI3       0.504000
     27 H121        -1.5030     3.3010     0.2220 hn         1 KI3       0.504000
     28 H161         3.9290     1.2430    -1.5150 ha         1 KI3       0.123000
     29 H171         5.8650    -0.2810    -1.5760 ha         1 KI3       0.115000
     30 H181         6.0180    -2.1580     0.0290 ha         1 KI3       0.113000
     31 H191         4.2200    -2.5040     1.6930 ha         1 KI3       0.115000
     32 H201         2.2760    -1.0040     1.7430 ha         1 KI3       0.123000
@<TRIPOS>BOND
     1     1     2 1   
     2     1    21 1   
     3     2     3 ar  
     4     2     8 ar  
     5     3     4 ar  
     6     3    22 1   
     7     4     5 1   
     8     4     6 ar  
     9     5    23 1   
    10     5    24 1   
    11     5    25 1   
    12     6     7 ar  
    13     6    11 1   
    14     7     8 ar  
    15     7     9 1   
    16     9    10 1   
    17    10    11 2   
    18    10    13 1   
    19    11    12 1   
    20    12    26 1   
    21    12    27 1   
    22    13    14 2   
    23    13    15 1   
    24    15    16 ar  
    25    15    20 ar  
    26    16    17 ar  
    27    16    28 1   
    28    17    18 ar  
    29    17    29 1   
    30    18    19 ar  
    31    18    30 1   
    32    19    20 ar  
    33    19    31 1   
    34    20    32 1   
@<TRIPOS>SUBSTRUCTURE
     1 KI3         1 TEMP              0 ****  ****    0 ROOT
