@<TRIPOS>MOLECULE
KI3
   32    34     1     0     0
SMALL
No Charge or Current Charge


@<TRIPOS>ATOM
      1 O01         -4.6740    -2.4010    -0.2930 oh         1 KI3      -0.626300
      2 C02         -3.7640    -1.4060    -0.2350 ca         1 KI3       0.620300
      3 C03         -4.1160    -0.1460     0.2660 ca         1 KI3      -0.279000
      4 C04         -3.1510     0.8770     0.3170 ca         1 KI3       0.060700
      5 C05         -3.5370     2.2440     0.8660 c3         1 KI3      -0.066800
      6 C06         -1.8620     0.5460    -0.1590 ca         1 KI3      -0.225800
      7 C07         -1.6230    -0.7340    -0.6300 ca         1 KI3       0.456300
      8 N08         -2.5420    -1.7140    -0.6800 nb         1 KI3      -0.686000
      9 S09          0.0440    -0.9960    -1.1960 ss         1 KI3      -0.071900
     10 C10          0.4360     0.6970    -0.7760 cc         1 KI3      -0.316600
     11 C11         -0.6510     1.3480    -0.2310 cd         1 KI3       0.306800
     12 N12         -0.5480     2.6190     0.2340 nv         1 KI3      -0.945000
     13 C13          1.8220     1.2280    -0.7340 c          1 KI3       0.637900
     14 O14          2.0620     2.4190    -0.9070 o          1 KI3      -0.588100
     15 C15          2.9210     0.2910    -0.2790 ca         1 KI3      -0.155600
     16 C16          4.2380     0.4930    -0.7480 ca         1 KI3      -0.073000
     17 C17          5.2840    -0.3500    -0.3320 ca         1 KI3      -0.118000
     18 C18          5.0290    -1.3960     0.5690 ca         1 KI3      -0.094000
     19 C19          3.7290    -1.5920     1.0610 ca         1 KI3      -0.118000
     20 C20          2.6810    -0.7520     0.6460 ca         1 KI3      -0.073000
     21 H011        -5.5030    -2.0260     0.0620 ho         1 KI3       0.476000
     22 H031        -5.1280     0.0380     0.6140 ha         1 KI3       0.123000
     23 H052        -3.4160     3.0250     0.1060 hc         1 KI3       0.053033
     24 H053        -4.5860     2.2680     1.1830 hc         1 KI3       0.053033
     25 H051        -2.9330     2.5060     1.7420 hc         1 KI3       0.053033
     26 H122         0.2880     3.1440    -0.0210 hn         1 KI3       0.504000
     27 H121        -1.3850     3.1640     0.4100 hn         1 KI3       0.504000
     28 H161         4.4520     1.3010    -1.4450 ha         1 KI3       0.123000
     29 H171         6.2920    -0.1900    -0.7070 ha         1 KI3       0.115000
     30 H181         5.8390    -2.0460     0.8930 ha         1 KI3       0.113000
     31 H191         3.5330    -2.3920     1.7720 ha         1 KI3       0.115000
     32 H201         1.6910    -0.9040     1.0680 ha         1 KI3       0.123000
@<TRIPOS>BOND
     1     1     2 1   
     2     1    21 1   
     3     2     3 ar  
     4     2     8 ar  
     5     3     4 ar  
     6     3    22 1   
     7     4     5 1   
     8     4     6 ar  
     9     5    23 1   
    10     5    24 1   
    11     5    25 1   
    12     6     7 ar  
    13     6    11 1   
    14     7     8 ar  
    15     7     9 1   
    16     9    10 1   
    17    10    11 2   
    18    10    13 1   
    19    11    12 1   
    20    12    26 1   
    21    12    27 1   
    22    13    14 2   
    23    13    15 1   
    24    15    16 ar  
    25    15    20 ar  
    26    16    17 ar  
    27    16    28 1   
    28    17    18 ar  
    29    17    29 1   
    30    18    19 ar  
    31    18    30 1   
    32    19    20 ar  
    33    19    31 1   
    34    20    32 1   
@<TRIPOS>SUBSTRUCTURE
     1 KI3         1 TEMP              0 ****  ****    0 ROOT
