@<TRIPOS>MOLECULE
KI4
   49    53     1     0     0
SMALL
abcg2


@<TRIPOS>ATOM
      1 N3         126.2310    38.7840    41.5360 nc         1 KI4      -0.280600
      2 C5         127.1840    38.8400    42.5030 cc         1 KI4       0.121400
      3 C7         125.0750    38.8600    42.1620 cd         1 KI4      -0.077000
      4 C8         130.1930    38.5280    38.0480 c          1 KI4       0.667700
      5 N12        129.3910    39.1630    35.1630 nu         1 KI4      -0.918900
      6 C15        124.2230    39.0530    44.4090 cd         1 KI4      -0.112000
      7 C21        129.0000    38.5560    40.8580 ca         1 KI4      -0.089000
      8 C22        128.9640    39.5550    33.9190 ca         1 KI4       0.227000
      9 C24        122.7140    38.9420    42.5370 cc         1 KI4      -0.108000
     10 C26        133.4660    36.8000    34.6910 c3         1 KI4       0.071900
     11 C28        127.7660    40.2740    33.8170 ca         1 KI4       0.051400
     12 C1         130.9280    38.1790    36.8360 cc         1 KI4      -0.332600
     13 C2         130.5270    38.4830    35.5050 cc         1 KI4       0.573900
     14 N4         131.3990    38.0270    34.6300 nd         1 KI4      -0.592800
     15 N6         125.2630    38.9640    43.5300 na         1 KI4       0.133100
     16 C9         126.6110    38.9510    43.7500 cd         1 KI4      -0.270100
     17 N10        132.3560    37.4320    35.3600 na         1 KI4       0.151800
     18 C11        132.1200    37.4940    36.6640 cd         1 KI4      -0.101000
     19 N13        130.8110    38.2400    39.2240 ns         1 KI4      -0.141000
     20 C14        128.6110    38.7780    42.1780 ca         1 KI4       0.007200
     21 C16        123.7550    38.8510    41.6620 cd         1 KI4      -0.068000
     22 O17        129.0860    39.0530    37.9830 o          1 KI4      -0.608100
     23 C18        130.3500    38.4900    40.5230 ca         1 KI4      -0.029000
     24 N19        129.1150    39.7360    31.5500 nb         1 KI4      -0.150000
     25 N20        127.2790    40.6930    32.6660 nb         1 KI4      -0.150000
     26 C23        122.9540    39.0440    43.9320 cc         1 KI4      -0.140000
     27 C25        127.9780    40.4060    31.5750 ca         1 KI4       0.070900
     28 C27        129.6120    39.3080    32.7050 ca         1 KI4       0.051400
     29 C29        129.5810    38.9260    43.1690 ca         1 KI4      -0.124000
     30 C30        130.9220    38.8470    42.8350 ca         1 KI4      -0.090000
     31 C31        131.3120    38.6350    41.5230 ca         1 KI4      -0.161000
     32 H34        128.8150    39.4190    35.9540 hn         1 KI4       0.540000
     33 H36        124.4770    39.1290    45.4560 h4         1 KI4       0.143000
     34 H38        128.2370    38.4250    40.1080 ha         1 KI4       0.164000
     35 H40        121.6960    38.9370    42.1720 ha         1 KI4       0.125000
     36 H43        133.9790    37.5210    34.0580 h1         1 KI4       0.062033
     37 H42        134.1600    36.4250    35.4380 h1         1 KI4       0.062033
     38 H44        133.1160    35.9700    34.0800 h1         1 KI4       0.062033
     39 H46        127.1960    40.5090    34.7120 h4         1 KI4       0.038600
     40 H32        127.0240    39.0130    44.7430 h4         1 KI4       0.231000
     41 H33        132.7990    37.0480    37.3750 h4         1 KI4       0.153000
     42 H35        131.7690    37.9280    39.1750 hn         1 KI4       0.145000
     43 H37        123.6040    38.7700    40.5950 ha         1 KI4       0.145000
     44 H39        122.1310    39.1160    44.6290 ha         1 KI4       0.130000
     45 H41        127.5810    40.7500    30.6270 h5         1 KI4       0.049100
     46 H45        130.5420    38.7590    32.6670 h4         1 KI4       0.038600
     47 H47        129.2980    39.1040    44.1990 ha         1 KI4       0.111000
     48 H48        131.6770    38.9600    43.6020 ha         1 KI4       0.112000
     49 H49        132.3650    38.5830    41.2740 ha         1 KI4       0.107000
@<TRIPOS>BOND
     1     1     2 1   
     2     1     3 2   
     3     2    16 2   
     4     2    20 1   
     5     3    15 1   
     6     3    21 1   
     7     4    12 1   
     8     4    19 1   
     9     4    22 2   
    10     5     8 1   
    11     5    13 1   
    12     5    32 1   
    13     6    15 1   
    14     6    26 2   
    15     6    33 1   
    16     7    20 ar  
    17     7    23 ar  
    18     7    34 1   
    19     8    11 ar  
    20     8    28 ar  
    21     9    21 2   
    22     9    26 1   
    23     9    35 1   
    24    10    17 1   
    25    10    36 1   
    26    10    37 1   
    27    10    38 1   
    28    11    25 ar  
    29    11    39 1   
    30    12    13 1   
    31    12    18 2   
    32    13    14 2   
    33    14    17 1   
    34    15    16 1   
    35    16    40 1   
    36    17    18 1   
    37    18    41 1   
    38    19    23 1   
    39    19    42 1   
    40    20    29 ar  
    41    21    43 1   
    42    23    31 ar  
    43    24    27 ar  
    44    24    28 ar  
    45    25    27 ar  
    46    26    44 1   
    47    27    45 1   
    48    28    46 1   
    49    29    30 ar  
    50    29    47 1   
    51    30    31 ar  
    52    30    48 1   
    53    31    49 1   
@<TRIPOS>SUBSTRUCTURE
     1 KI4         1 TEMP              0 ****  ****    0 ROOT
