@<TRIPOS>MOLECULE
KI4
   49    53     1     0     0
SMALL
No Charge or Current Charge


@<TRIPOS>ATOM
      1 N3         126.0070    38.7270    41.5380 nc         1 KI4      -0.280600
      2 C5         127.0350    38.7080    42.4590 cc         1 KI4       0.121400
      3 C7         124.9320    39.0180    42.2470 cd         1 KI4      -0.077000
      4 C8         130.1060    38.4660    37.8830 c          1 KI4       0.667700
      5 N12        129.4630    38.9010    35.0080 nu         1 KI4      -0.918900
      6 C15        124.3830    39.5010    44.5780 cd         1 KI4      -0.112000
      7 C21        128.8730    38.4550    40.7820 ca         1 KI4      -0.089000
      8 C22        128.8780    39.2530    33.7770 ca         1 KI4       0.227000
      9 C24        122.6630    39.4810    42.7670 cc         1 KI4      -0.108000
     10 C26        134.0860    37.7500    34.8930 c3         1 KI4       0.071900
     11 C28        127.7100    40.0470    33.7500 ca         1 KI4       0.051400
     12 C1         131.0270    38.3340    36.7390 cc         1 KI4      -0.332600
     13 C2         130.7140    38.5410    35.3990 cc         1 KI4       0.573900
     14 N4         131.7050    38.3820    34.5660 nd         1 KI4      -0.592800
     15 N6         125.2820    39.1760    43.5620 na         1 KI4       0.133100
     16 C9         126.6260    38.9930    43.7470 cd         1 KI4      -0.270100
     17 N10        132.7440    38.0320    35.4190 na         1 KI4       0.151800
     18 C11        132.3530    37.9940    36.7640 cd         1 KI4      -0.101000
     19 N13        130.7070    38.1840    39.1030 ns         1 KI4      -0.141000
     20 C14        128.4460    38.4430    42.1300 ca         1 KI4       0.007200
     21 C16        123.5880    39.1650    41.7920 cd         1 KI4      -0.068000
     22 O17        128.9340    38.8000    37.7500 o          1 KI4      -0.608100
     23 C18        130.2160    38.1790    40.4380 ca         1 KI4      -0.029000
     24 N19        128.7830    39.1830    31.3610 nb         1 KI4      -0.150000
     25 N20        127.1080    40.4020    32.5940 nb         1 KI4      -0.150000
     26 C23        123.0680    39.6460    44.1450 cc         1 KI4      -0.140000
     27 C25        127.6790    39.9520    31.4570 ca         1 KI4       0.070900
     28 C27        129.3790    38.8340    32.5210 ca         1 KI4       0.051400
     29 C29        129.3860    38.1200    43.1340 ca         1 KI4      -0.124000
     30 C30        130.7200    37.8430    42.8000 ca         1 KI4      -0.090000
     31 C31        131.1320    37.8750    41.4600 ca         1 KI4      -0.161000
     32 H34        128.8760    39.0550    35.8340 hn         1 KI4       0.540000
     33 H36        124.7470    39.6130    45.5920 h4         1 KI4       0.143000
     34 H38        128.1450    38.6870    40.0130 ha         1 KI4       0.164000
     35 H40        121.6170    39.6120    42.5090 ha         1 KI4       0.125000
     36 H43        134.4870    38.6510    34.4130 h1         1 KI4       0.062033
     37 H42        134.7510    37.4500    35.7120 h1         1 KI4       0.062033
     38 H44        134.0290    36.9400    34.1570 h1         1 KI4       0.062033
     39 H46        127.2490    40.4080    34.6680 h4         1 KI4       0.038600
     40 H32        127.1400    39.0820    44.6960 h4         1 KI4       0.231000
     41 H33        133.0320    37.7450    37.5720 h4         1 KI4       0.153000
     42 H35        131.6830    37.9320    39.0280 hn         1 KI4       0.145000
     43 H37        123.3110    39.0390    40.7500 ha         1 KI4       0.145000
     44 H39        122.2960    39.8970    44.8670 ha         1 KI4       0.130000
     45 H41        127.1970    40.2360    30.5230 h5         1 KI4       0.049100
     46 H45        130.2570    38.1980    32.4320 h4         1 KI4       0.038600
     47 H47        129.0900    38.0730    44.1780 ha         1 KI4       0.111000
     48 H48        131.4350    37.5980    43.5830 ha         1 KI4       0.112000
     49 H49        132.1700    37.6570    41.2160 ha         1 KI4       0.107000
@<TRIPOS>BOND
     1     1     2 1   
     2     1     3 2   
     3     2    16 2   
     4     2    20 1   
     5     3    15 1   
     6     3    21 1   
     7     4    12 1   
     8     4    19 1   
     9     4    22 2   
    10     5     8 1   
    11     5    13 1   
    12     5    32 1   
    13     6    15 1   
    14     6    26 2   
    15     6    33 1   
    16     7    20 ar  
    17     7    23 ar  
    18     7    34 1   
    19     8    11 ar  
    20     8    28 ar  
    21     9    21 2   
    22     9    26 1   
    23     9    35 1   
    24    10    17 1   
    25    10    36 1   
    26    10    37 1   
    27    10    38 1   
    28    11    25 ar  
    29    11    39 1   
    30    12    13 1   
    31    12    18 2   
    32    13    14 2   
    33    14    17 1   
    34    15    16 1   
    35    16    40 1   
    36    17    18 1   
    37    18    41 1   
    38    19    23 1   
    39    19    42 1   
    40    20    29 ar  
    41    21    43 1   
    42    23    31 ar  
    43    24    27 ar  
    44    24    28 ar  
    45    25    27 ar  
    46    26    44 1   
    47    27    45 1   
    48    28    46 1   
    49    29    30 ar  
    50    29    47 1   
    51    30    31 ar  
    52    30    48 1   
    53    31    49 1   
@<TRIPOS>SUBSTRUCTURE
     1 KI4         1 TEMP              0 ****  ****    0 ROOT
