@<TRIPOS>MOLECULE
KI5
   24    24     1     0     0
SMALL
No Charge or Current Charge


@<TRIPOS>ATOM
      1 O            4.7490     0.7090     0.0030 oh         1 KI5      -0.656000
      2 C6           3.8210    -0.3840     0.0120 c3         1 KI5       0.170600
      3 C5           2.3760     0.1530     0.0040 c3         1 KI5       0.035600
      4 S            1.1540    -1.2420     0.0160 ss         1 KI5      -0.320300
      5 C4          -0.4450    -0.4340     0.0050 ca         1 KI5       0.248300
      6 N           -1.5230    -1.2460     0.0090 nb         1 KI5      -0.191000
      7 C3          -2.7360    -0.6580     0.0010 ca         1 KI5       0.143800
      8 C7          -3.9470    -1.5720     0.0120 c3         1 KI5      -0.151400
      9 C2          -2.8670     0.7400    -0.0080 ca         1 KI5      -0.232000
     10 N1          -0.4760     0.9170    -0.0050 nb         1 KI5      -0.191000
     11 C1          -1.6890     1.5050    -0.0130 ca         1 KI5       0.143800
     12 C           -1.7220     3.0210    -0.0180 c3         1 KI5      -0.151400
     13 H            5.6510     0.3180     0.0080 ho         1 KI5       0.445000
     14 H61C         3.9720    -1.0210    -0.8700 h1         1 KI5       0.028200
     15 H62C         3.9700    -1.0040     0.9060 h1         1 KI5       0.028200
     16 H51C         2.2160     0.7810     0.8900 h1         1 KI5       0.086700
     17 H52C         2.2180     0.7640    -0.8930 h1         1 KI5       0.086700
     18 H71C        -4.1760    -1.9020     1.0320 hc         1 KI5       0.057200
     19 H72C        -4.8350    -1.0620    -0.3820 hc         1 KI5       0.057200
     20 H73C        -3.7800    -2.4650    -0.6020 hc         1 KI5       0.057200
     21 H2          -3.8450     1.2140    -0.0090 ha         1 KI5       0.132000
     22 HC1         -1.5930     3.4170     0.9960 hc         1 KI5       0.057200
     23 HC2         -0.9240     3.4360    -0.6460 hc         1 KI5       0.057200
     24 HC3         -2.6760     3.3980    -0.4060 hc         1 KI5       0.057200
@<TRIPOS>BOND
     1     1     2 1   
     2     1    13 1   
     3     2     3 1   
     4     2    14 1   
     5     2    15 1   
     6     3     4 1   
     7     3    16 1   
     8     3    17 1   
     9     4     5 1   
    10     5     6 ar  
    11     5    10 ar  
    12     6     7 ar  
    13     7     8 1   
    14     7     9 ar  
    15     8    18 1   
    16     8    19 1   
    17     8    20 1   
    18     9    11 ar  
    19     9    21 1   
    20    10    11 ar  
    21    11    12 1   
    22    12    22 1   
    23    12    23 1   
    24    12    24 1   
@<TRIPOS>SUBSTRUCTURE
     1 KI5         1 TEMP              0 ****  ****    0 ROOT
