@<TRIPOS>MOLECULE
KI5
   24    24     1     0     0
SMALL
abcg2


@<TRIPOS>ATOM
      1 O            4.6180     0.6600     0.0290 oh         1 KI5      -0.656000
      2 C6           3.7100    -0.4160     0.0480 c3         1 KI5       0.170600
      3 C5           2.3100     0.1770     0.0360 c3         1 KI5       0.035600
      4 S            1.1260    -1.1940     0.0660 ss         1 KI5      -0.320300
      5 C4          -0.4220    -0.3670     0.0280 ca         1 KI5       0.248300
      6 N           -1.4560    -1.1960     0.0320 nb         1 KI5      -0.191000
      7 C3          -2.6650    -0.6420     0.0010 ca         1 KI5       0.143800
      8 C7          -3.8380    -1.5660     0.0040 c3         1 KI5      -0.151400
      9 C2          -2.8130     0.7400    -0.0340 ca         1 KI5      -0.232000
     10 N1          -0.4560     0.9500    -0.0030 nb         1 KI5      -0.191000
     11 C1          -1.6640     1.5170    -0.0340 ca         1 KI5       0.143800
     12 C           -1.7140     3.0090    -0.0650 c3         1 KI5      -0.151400
     13 H            5.5090     0.2980     0.0310 ho         1 KI5       0.445000
     14 H61C         3.8380    -1.0710    -0.8240 h1         1 KI5       0.028200
     15 H62C         3.8380    -1.0400     0.9410 h1         1 KI5       0.028200
     16 H51C         2.1540     0.8130     0.9070 h1         1 KI5       0.086700
     17 H52C         2.1520     0.7740    -0.8620 h1         1 KI5       0.086700
     18 H71C        -3.8280    -2.1880     0.9000 hc         1 KI5       0.057200
     19 H72C        -4.7800    -1.0230    -0.0280 hc         1 KI5       0.057200
     20 H73C        -3.7940    -2.2360    -0.8560 hc         1 KI5       0.057200
     21 H2          -3.7930     1.1950    -0.0610 ha         1 KI5       0.132000
     22 HC1         -1.2670     3.4210     0.8410 hc         1 KI5       0.057200
     23 HC2         -1.1380     3.3900    -0.9090 hc         1 KI5       0.057200
     24 HC3         -2.7340     3.3770    -0.1450 hc         1 KI5       0.057200
@<TRIPOS>BOND
     1     1     2 1   
     2     1    13 1   
     3     2     3 1   
     4     2    14 1   
     5     2    15 1   
     6     3     4 1   
     7     3    16 1   
     8     3    17 1   
     9     4     5 1   
    10     5     6 ar  
    11     5    10 ar  
    12     6     7 ar  
    13     7     8 1   
    14     7     9 ar  
    15     8    18 1   
    16     8    19 1   
    17     8    20 1   
    18     9    11 ar  
    19     9    21 1   
    20    10    11 ar  
    21    11    12 1   
    22    12    22 1   
    23    12    23 1   
    24    12    24 1   
@<TRIPOS>SUBSTRUCTURE
     1 KI5         1 TEMP              0 ****  ****    0 ROOT
