@<TRIPOS>MOLECULE
KI7
   57    60     1     0     0
SMALL
No Charge or Current Charge


@<TRIPOS>ATOM
      1 N1          14.4060   -10.9990    28.3910 na         1 KI7       0.069900
      2 N3          16.8260   -10.5200    28.4850 nc         1 KI7      -0.696000
      3 C4          15.7160    -7.6210    28.2730 ca         1 KI7      -0.002800
      4 C5          16.9380    -7.4760    28.9670 ca         1 KI7      -0.050000
      5 C6          17.6200    -6.2460    28.9940 ca         1 KI7       0.056100
      6 C7          14.9840    -8.9170    28.2490 cd         1 KI7      -0.263800
      7 C8          13.5560    -9.1150    28.2240 cd         1 KI7       0.431600
      8 C10         14.5910   -12.3810    28.5080 cc         1 KI7       0.405000
      9 C13         15.0010   -15.4940    30.8060 ca         1 KI7      -0.084500
     10 C15         14.5940   -14.9540    33.1450 ca         1 KI7       0.113100
     11 C17         13.0900   -14.1180    31.4230 ca         1 KI7      -0.084500
     12 C21         15.5050   -10.1790    28.4100 cc         1 KI7       0.448500
     13 O6          16.8990   -13.4840    34.2270 o          1 KI7      -0.541000
     14 S1          15.8340   -13.8760    35.1630 s6         1 KI7       1.587600
     15 O5          16.1740   -14.2910    36.5340 o          1 KI7      -0.541000
     16 O4          14.9380   -15.0790    34.4660 os         1 KI7      -0.482800
     17 C14         15.3610   -15.6000    32.1610 ca         1 KI7      -0.098500
     18 C16         13.4510   -14.2240    32.7780 ca         1 KI7      -0.098500
     19 C12         13.8660   -14.7470    30.4270 ca         1 KI7      -0.106300
     20 C11         13.4740   -14.6300    28.9560 c3         1 KI7       0.279100
     21 N2          13.5020   -13.2260    28.5160 nu         1 KI7      -0.966200
     22 C18         15.9140   -12.7720    28.6010 cd         1 KI7      -0.333000
     23 C19         17.0010   -11.8300    28.5890 cd         1 KI7       0.445300
     24 N           13.1740   -10.3850    28.2900 nc         1 KI7      -0.626100
     25 C9          12.4800    -8.0620    28.1980 c3         1 KI7      -0.112400
     26 C3          15.2080    -6.4970    27.5860 ca         1 KI7      -0.062000
     27 C2          15.8910    -5.2690    27.5900 ca         1 KI7      -0.194000
     28 O1          18.8080    -6.1670    29.6910 os         1 KI7      -0.459800
     29 S           18.8530    -5.3600    31.1380 s6         1 KI7       1.582600
     30 O3          17.4740    -5.1230    31.5970 o          1 KI7      -0.549000
     31 O2          19.8090    -6.0550    32.0170 o          1 KI7      -0.549000
     32 C1          17.1060    -5.1310    28.2920 ca         1 KI7       0.148100
     33 O           17.8160    -3.9440    28.3040 os         1 KI7      -0.322100
     34 C           17.3640    -2.7670    27.6100 c3         1 KI7       0.147900
     35 H1          17.3610    -8.3030    29.5270 ha         1 KI7       0.152000
     36 H2          15.6050   -15.9950    30.0520 ha         1 KI7       0.128500
     37 H3          12.2070   -13.5460    31.1460 ha         1 KI7       0.128500
     38 H4          18.9890   -11.6770    29.4080 hc         1 KI7       0.060033
     39 H5          18.4950   -13.3270    29.0100 hc         1 KI7       0.060033
     40 H6          18.9280   -12.2010    27.7140 hc         1 KI7       0.060033
     41 H9          16.2340   -16.1810    32.4480 ha         1 KI7       0.141000
     42 H10         12.8410   -13.7430    33.5400 ha         1 KI7       0.141000
     43 H11         12.4650   -15.0470    28.8240 h1         1 KI7       0.066700
     44 H12         14.1540   -15.2340    28.3390 h1         1 KI7       0.066700
     45 H13         12.6140   -12.7180    28.4740 hn         1 KI7       0.533000
     46 H14         16.1470   -13.8240    28.6810 ha         1 KI7       0.141000
     47 H15         11.5390    -8.4430    28.6130 hc         1 KI7       0.053700
     48 H16         12.7660    -7.1890    28.7950 hc         1 KI7       0.053700
     49 H17         12.2780    -7.7340    27.1730 hc         1 KI7       0.053700
     50 H18         14.2980    -6.5740    27.0000 ha         1 KI7       0.118000
     51 H19         15.4650    -4.4400    27.0310 ha         1 KI7       0.123000
     52 H22         18.0760    -1.9450    27.7550 h1         1 KI7       0.046033
     53 H23         17.2800    -2.9570    26.5330 h1         1 KI7       0.046033
     54 H24         16.3880    -2.4410    27.9900 h1         1 KI7       0.046033
     55 F1          14.8400   -12.5750    35.3010 f          1 KI7      -0.275900
     56 F2          19.5060    -3.8830    30.8340 f          1 KI7      -0.277900
     57 C20         18.4290   -12.2830    28.6860 c3         1 KI7      -0.154400
@<TRIPOS>BOND
     1     1     8 1   
     2     1    12 1   
     3     1    24 1   
     4     2    12 1   
     5     2    23 2   
     6     3     4 ar  
     7     3     6 1   
     8     3    26 ar  
     9     4     5 ar  
    10     4    35 1   
    11     5    28 1   
    12     5    32 ar  
    13     6     7 1   
    14     6    12 2   
    15     7    24 2   
    16     7    25 1   
    17     8    21 1   
    18     8    22 2   
    19     9    17 ar  
    20     9    19 ar  
    21     9    36 1   
    22    10    16 1   
    23    10    17 ar  
    24    10    18 ar  
    25    11    18 ar  
    26    11    19 ar  
    27    11    37 1   
    28    13    14 2   
    29    14    15 2   
    30    14    16 1   
    31    14    55 1   
    32    17    41 1   
    33    18    42 1   
    34    19    20 1   
    35    20    21 1   
    36    20    43 1   
    37    20    44 1   
    38    21    45 1   
    39    22    23 1   
    40    22    46 1   
    41    23    57 1   
    42    25    47 1   
    43    25    48 1   
    44    25    49 1   
    45    26    27 ar  
    46    26    50 1   
    47    27    32 ar  
    48    27    51 1   
    49    28    29 1   
    50    29    30 2   
    51    29    31 2   
    52    29    56 1   
    53    32    33 1   
    54    33    34 1   
    55    34    52 1   
    56    34    53 1   
    57    34    54 1   
    58    38    57 1   
    59    39    57 1   
    60    40    57 1   
@<TRIPOS>SUBSTRUCTURE
     1 KI7         1 TEMP              0 ****  ****    0 ROOT
