@<TRIPOS>MOLECULE
KI7
   57    60     1     0     0
SMALL
abcg2


@<TRIPOS>ATOM
      1 N1          14.6510   -10.6570    28.7880 na         1 KI7       0.069900
      2 N3          16.9740   -10.1640    28.7870 nc         1 KI7      -0.696000
      3 C4          15.7830    -7.2630    28.1990 ca         1 KI7      -0.002800
      4 C5          16.8670    -6.8760    28.9920 ca         1 KI7      -0.050000
      5 C6          17.4760    -5.6600    28.7750 ca         1 KI7       0.056100
      6 C7          15.1070    -8.5400    28.4150 cd         1 KI7      -0.263800
      7 C8          13.7210    -8.8040    28.4090 cd         1 KI7       0.431600
      8 C10         14.8360   -11.9870    29.0080 cc         1 KI7       0.405000
      9 C13         14.4380   -15.9800    30.7920 ca         1 KI7      -0.084500
     10 C15         14.2200   -15.7200    33.1440 ca         1 KI7       0.113100
     11 C17         13.6730   -13.9010    31.7100 ca         1 KI7      -0.084500
     12 C21         15.6990    -9.7750    28.6740 cc         1 KI7       0.448500
     13 O6          16.7320   -16.4670    34.4670 o          1 KI7      -0.541000
     14 S1          15.5750   -16.2660    35.2790 s6         1 KI7       1.587600
     15 O5          15.3000   -17.0150    36.4590 o          1 KI7      -0.541000
     16 O4          14.2420   -16.2820    34.4280 os         1 KI7      -0.482800
     17 C14         14.5560   -16.5150    32.0650 ca         1 KI7      -0.098500
     18 C16         13.7920   -14.4160    32.9930 ca         1 KI7      -0.098500
     19 C12         13.9850   -14.6770    30.6010 ca         1 KI7      -0.106300
     20 C11         13.7740   -14.1770    29.1900 c3         1 KI7       0.279100
     21 N2          13.7400   -12.7460    29.0580 nu         1 KI7      -0.966200
     22 C18         16.1500   -12.3940    29.1410 cd         1 KI7      -0.333000
     23 C19         17.1830   -11.4460    29.0170 cd         1 KI7       0.445300
     24 N           13.4530   -10.0810    28.6350 nc         1 KI7      -0.626100
     25 C9          12.6100    -7.8340    28.2050 c3         1 KI7      -0.112400
     26 C3          15.3720    -6.3850    27.1970 ca         1 KI7      -0.062000
     27 C2          16.0000    -5.1680    26.9780 ca         1 KI7      -0.194000
     28 O1          18.5800    -5.2780    29.5450 os         1 KI7      -0.459800
     29 S           18.3630    -4.6840    30.9970 s6         1 KI7       1.582600
     30 O3          17.5150    -5.5160    31.7930 o          1 KI7      -0.549000
     31 O2          19.6430    -4.2310    31.4320 o          1 KI7      -0.549000
     32 C1          17.0750    -4.7780    27.7690 ca         1 KI7       0.148100
     33 O           17.7690    -3.6440    27.6390 os         1 KI7      -0.322100
     34 C           17.3810    -2.7300    26.6290 c3         1 KI7       0.147900
     35 H1          17.2310    -7.5230    29.7790 ha         1 KI7       0.152000
     36 H2          14.6970   -16.5930    29.9370 ha         1 KI7       0.128500
     37 H3          13.3280   -12.8830    31.5850 ha         1 KI7       0.128500
     38 H4          19.2950   -11.0900    28.9770 hc         1 KI7       0.060033
     39 H5          18.7840   -12.3230    30.1380 hc         1 KI7       0.060033
     40 H6          18.8140   -12.7010    28.4260 hc         1 KI7       0.060033
     41 H9          14.8910   -17.5340    32.2080 ha         1 KI7       0.141000
     42 H10         13.5270   -13.8140    33.8520 ha         1 KI7       0.141000
     43 H11         12.8200   -14.5550    28.8210 h1         1 KI7       0.066700
     44 H12         14.5380   -14.5980    28.5310 h1         1 KI7       0.066700
     45 H13         12.8510   -12.2860    28.9340 hn         1 KI7       0.533000
     46 H14         16.3860   -13.4300    29.3370 ha         1 KI7       0.141000
     47 H15         11.6810    -8.2210    28.6190 hc         1 KI7       0.053700
     48 H16         12.8300    -6.8790    28.6820 hc         1 KI7       0.053700
     49 H17         12.4440    -7.6350    27.1450 hc         1 KI7       0.053700
     50 H18         14.5560    -6.6620    26.5440 ha         1 KI7       0.118000
     51 H19         15.6430    -4.5350    26.1770 ha         1 KI7       0.123000
     52 H22         18.0680    -1.8910    26.6980 h1         1 KI7       0.046033
     53 H23         17.4590    -3.1710    25.6320 h1         1 KI7       0.046033
     54 H24         16.3620    -2.3680    26.7810 h1         1 KI7       0.046033
     55 F1          15.5860   -14.7350    35.6930 f          1 KI7      -0.275900
     56 F2          17.5010    -3.4040    30.6330 f          1 KI7      -0.277900
     57 C20         18.6000   -11.9100    29.1450 c3         1 KI7      -0.154400
@<TRIPOS>BOND
     1     1     8 1   
     2     1    12 1   
     3     1    24 1   
     4     2    12 1   
     5     2    23 2   
     6     3     4 ar  
     7     3     6 1   
     8     3    26 ar  
     9     4     5 ar  
    10     4    35 1   
    11     5    28 1   
    12     5    32 ar  
    13     6     7 1   
    14     6    12 2   
    15     7    24 2   
    16     7    25 1   
    17     8    21 1   
    18     8    22 2   
    19     9    17 ar  
    20     9    19 ar  
    21     9    36 1   
    22    10    16 1   
    23    10    17 ar  
    24    10    18 ar  
    25    11    18 ar  
    26    11    19 ar  
    27    11    37 1   
    28    13    14 2   
    29    14    15 2   
    30    14    16 1   
    31    14    55 1   
    32    17    41 1   
    33    18    42 1   
    34    19    20 1   
    35    20    21 1   
    36    20    43 1   
    37    20    44 1   
    38    21    45 1   
    39    22    23 1   
    40    22    46 1   
    41    23    57 1   
    42    25    47 1   
    43    25    48 1   
    44    25    49 1   
    45    26    27 ar  
    46    26    50 1   
    47    27    32 ar  
    48    27    51 1   
    49    28    29 1   
    50    29    30 2   
    51    29    31 2   
    52    29    56 1   
    53    32    33 1   
    54    33    34 1   
    55    34    52 1   
    56    34    53 1   
    57    34    54 1   
    58    38    57 1   
    59    39    57 1   
    60    40    57 1   
@<TRIPOS>SUBSTRUCTURE
     1 KI7         1 TEMP              0 ****  ****    0 ROOT
