@<TRIPOS>MOLECULE
KI8
   55    59     1     0     0
SMALL
No Charge or Current Charge


@<TRIPOS>ATOM
      1 N3          92.7940    -8.8940    14.4870 na         1 KI8       0.242000
      2 C6          95.6340    -6.7410    13.2250 cc         1 KI8      -0.285600
      3 C7          95.5000    -7.9670    12.5640 cd         1 KI8      -0.012000
      4 C8          93.8110    -9.9560    12.9470 cd         1 KI8       0.316300
      5 C13         91.8750    -8.6240    15.5060 ca         1 KI8       0.025800
      6 C15         98.5030    -7.2400    12.2610 c6         1 KI8       0.097000
      7 C17         99.9080    -7.0020    12.8870 c6         1 KI8       0.166800
      8 C20         94.2690   -11.0730    12.0550 c3         1 KI8      -0.123400
      9 C22        102.7590    -4.8560    12.8750 ca         1 KI8      -0.118000
     10 C24         91.1470    -7.4140    15.5150 ca         1 KI8      -0.115000
     11 C26        102.8960    -9.0380    10.2760 c3         1 KI8       0.144900
     12 C28        104.9140    -5.8330    12.3130 ca         1 KI8      -0.084000
     13 C1          93.6650    -7.9810    13.9400 cc         1 KI8      -0.202000
     14 C2          94.3850    -8.6690    13.0770 cd         1 KI8      -0.198000
     15 N4          92.8110   -10.1210    13.8210 nc         1 KI8      -0.499800
     16 S5          94.3890    -6.5050    14.4940 ss         1 KI8       0.284000
     17 C9          96.6030    -5.6610    12.9220 c          1 KI8       0.644700
     18 N10         97.7190    -5.9760    12.1140 n          1 KI8      -0.401800
     19 N11        100.6590    -5.9170    12.1920 nh         1 KI8      -0.763400
     20 C12        102.0830    -5.9070    12.2170 ca         1 KI8       0.224000
     21 C14         98.4940    -4.9080    11.4200 c6         1 KI8       0.097000
     22 O16         96.4380    -4.5220    13.3380 o          1 KI8      -0.612100
     23 C18         99.8780    -4.6520    12.0740 c6         1 KI8       0.166800
     24 C19        102.8510    -6.9370    11.5960 ca         1 KI8       0.137100
     25 O21        102.1960    -7.9650    10.9290 os         1 KI8      -0.329100
     26 C23         91.6620    -9.5610    16.5400 ca         1 KI8      -0.115000
     27 C25        104.2650    -6.8880    11.6520 ca         1 KI8      -0.191000
     28 C27        104.1620    -4.8190    12.9230 ca         1 KI8      -0.132000
     29 C29         90.7420    -9.2900    17.5680 ca         1 KI8      -0.094500
     30 C30         90.2270    -7.1440    16.5430 ca         1 KI8      -0.094500
     31 C31         90.0260    -8.0820    17.5700 ca         1 KI8      -0.114000
     32 H1          96.1360    -8.3430    11.7690 ha         1 KI8       0.139000
     33 H2          97.9860    -7.9570    12.9110 h1         1 KI8       0.063950
     34 H3          98.6220    -7.7060    11.2730 h1         1 KI8       0.063950
     35 H4         100.4690    -7.9460    12.8610 h1         1 KI8       0.045700
     36 H5          99.7790    -6.7350    13.9470 h1         1 KI8       0.045700
     37 H6          93.4220   -11.6780    11.7100 hc         1 KI8       0.052367
     38 H7          94.7830   -10.6820    11.1700 hc         1 KI8       0.052367
     39 H8          94.9640   -11.7330    12.5860 hc         1 KI8       0.052367
     40 H9         102.1960    -4.0670    13.3640 ha         1 KI8       0.116000
     41 H10         91.2880    -6.6850    14.7200 ha         1 KI8       0.133000
     42 H11        102.1810    -9.7340     9.8190 h1         1 KI8       0.039367
     43 H12        103.5480    -8.6520     9.4820 h1         1 KI8       0.039367
     44 H13        103.5060    -9.6000    10.9940 h1         1 KI8       0.039367
     45 H14        106.0010    -5.8010    12.3530 ha         1 KI8       0.113000
     46 H15         98.6490    -5.2130    10.3760 h1         1 KI8       0.063950
     47 H16         97.9240    -3.9690    11.3950 h1         1 KI8       0.063950
     48 H17         99.7280    -4.2070    13.0680 h1         1 KI8       0.045700
     49 H18        100.4250    -3.9200    11.4610 h1         1 KI8       0.045700
     50 H19         92.2140   -10.4980    16.5470 ha         1 KI8       0.133000
     51 H20        104.8770    -7.6550    11.1880 ha         1 KI8       0.117000
     52 H21        104.6670    -4.0040    13.4370 ha         1 KI8       0.116000
     53 H22         90.5850   -10.0170    18.3630 ha         1 KI8       0.118500
     54 H23         89.6700    -6.2100    16.5430 ha         1 KI8       0.118500
     55 H24         89.3130    -7.8720    18.3660 ha         1 KI8       0.118000
@<TRIPOS>BOND
     1     1     5 1   
     2     1    13 1   
     3     1    15 1   
     4     2     3 2   
     5     2    16 1   
     6     2    17 1   
     7     3    14 1   
     8     3    32 1   
     9     4     8 1   
    10     4    14 1   
    11     4    15 2   
    12     5    10 ar  
    13     5    26 ar  
    14     6     7 1   
    15     6    18 1   
    16     6    33 1   
    17     6    34 1   
    18     7    19 1   
    19     7    35 1   
    20     7    36 1   
    21     8    37 1   
    22     8    38 1   
    23     8    39 1   
    24     9    20 ar  
    25     9    28 ar  
    26     9    40 1   
    27    10    30 ar  
    28    10    41 1   
    29    11    25 1   
    30    11    42 1   
    31    11    43 1   
    32    11    44 1   
    33    12    27 ar  
    34    12    28 ar  
    35    12    45 1   
    36    13    14 2   
    37    13    16 1   
    38    17    18 1   
    39    17    22 2   
    40    18    21 1   
    41    19    20 1   
    42    19    23 1   
    43    20    24 ar  
    44    21    23 1   
    45    21    46 1   
    46    21    47 1   
    47    23    48 1   
    48    23    49 1   
    49    24    25 1   
    50    24    27 ar  
    51    26    29 ar  
    52    26    50 1   
    53    27    51 1   
    54    28    52 1   
    55    29    31 ar  
    56    29    53 1   
    57    30    31 ar  
    58    30    54 1   
    59    31    55 1   
@<TRIPOS>SUBSTRUCTURE
     1 KI8         1 TEMP              0 ****  ****    0 ROOT
