@<TRIPOS>MOLECULE
KI8
   55    59     1     0     0
SMALL
bcc


@<TRIPOS>ATOM
      1 N3          92.8820    -8.8540    14.5300 na         1 KI8       0.191300
      2 C6          95.6900    -6.9410    12.8610 cc         1 KI8      -0.140700
      3 C7          95.5180    -8.1890    12.3440 cd         1 KI8      -0.030000
      4 C8          93.7740   -10.1240    13.0380 cd         1 KI8       0.381600
      5 C13         92.0150    -8.5180    15.5830 ca         1 KI8       0.025800
      6 C15         98.4980    -7.2730    11.9430 c6         1 KI8       0.097000
      7 C17         99.8550    -7.0700    12.5980 c6         1 KI8       0.166800
      8 C20         94.0100   -11.3380    12.2150 c3         1 KI8      -0.123400
      9 C22        102.5010    -4.9780    13.1260 ca         1 KI8      -0.136000
     10 C24         91.6110    -7.1990    15.7540 ca         1 KI8      -0.133000
     11 C26        103.0640    -8.6830    10.1600 c3         1 KI8       0.121700
     12 C28        104.7040    -5.8600    12.7960 ca         1 KI8      -0.102000
     13 C1          93.8400    -8.1050    13.9510 cc         1 KI8      -0.006400
     14 C2          94.4510    -8.8770    12.9790 cd         1 KI8      -0.263300
     15 N4          92.8490   -10.0850    13.9680 nc         1 KI8      -0.499800
     16 S5          94.5160    -6.5410    14.1090 ss         1 KI8      -0.005800
     17 C9          96.5540    -5.7980    12.4900 c          1 KI8       0.711700
     18 N10         97.7520    -6.0270    11.9140 n          1 KI8      -0.468800
     19 N11        100.5840    -5.9850    11.9620 nh         1 KI8      -0.625000
     20 C12        101.9570    -5.9280    12.2720 ca         1 KI8       0.085600
     21 C14         98.5070    -4.9190    11.3490 c6         1 KI8       0.097000
     22 O16         96.1210    -4.6710    12.7100 o          1 KI8      -0.612100
     23 C18         99.8380    -4.7470    12.0570 c6         1 KI8       0.166800
     24 C19        102.8240    -6.8590    11.6600 ca         1 KI8       0.137100
     25 O21        102.2480    -7.7370    10.8180 os         1 KI8      -0.305900
     26 C23         91.5720    -9.5070    16.4570 ca         1 KI8      -0.133000
     27 C25        104.1850    -6.8240    11.9360 ca         1 KI8      -0.209000
     28 C27        103.8680    -4.9310    13.3850 ca         1 KI8      -0.150000
     29 C29         90.7280    -9.1650    17.5010 ca         1 KI8      -0.112500
     30 C30         90.7770    -6.8690    16.8130 ca         1 KI8      -0.112500
     31 C31         90.3320    -7.8470    17.6900 ca         1 KI8      -0.132000
     32 H1          96.1060    -8.5950    11.5330 ha         1 KI8       0.157000
     33 H2          97.9620    -8.0240    12.5140 h1         1 KI8       0.063950
     34 H3          98.6280    -7.6480    10.9230 h1         1 KI8       0.063950
     35 H4         100.4140    -8.0010    12.5140 h1         1 KI8       0.045700
     36 H5          99.7070    -6.8710    13.6710 h1         1 KI8       0.045700
     37 H6          93.3350   -12.1420    12.5040 hc         1 KI8       0.052367
     38 H7          93.8580   -11.1270    11.1560 hc         1 KI8       0.052367
     39 H8          95.0350   -11.6930    12.3300 hc         1 KI8       0.052367
     40 H9         101.8500    -4.2550    13.6020 ha         1 KI8       0.134000
     41 H10         91.9110    -6.4270    15.0570 ha         1 KI8       0.151000
     42 H11        102.4030    -9.2800     9.5370 h1         1 KI8       0.039367
     43 H12        103.8130    -8.2040     9.5220 h1         1 KI8       0.039367
     44 H13        103.5760    -9.3450    10.8640 h1         1 KI8       0.039367
     45 H14        105.7680    -5.8430    12.9920 ha         1 KI8       0.131000
     46 H15         98.6880    -5.1300    10.2910 h1         1 KI8       0.063950
     47 H16         97.9240    -4.0060    11.4160 h1         1 KI8       0.063950
     48 H17         99.6540    -4.4380    13.0980 h1         1 KI8       0.045700
     49 H18        100.3970    -3.9470    11.5690 h1         1 KI8       0.045700
     50 H19         91.8880   -10.5320    16.3240 ha         1 KI8       0.151000
     51 H20        104.8620    -7.5300    11.4730 ha         1 KI8       0.135000
     52 H21        104.2640    -4.1770    14.0520 ha         1 KI8       0.134000
     53 H22         90.3870    -9.9370    18.1790 ha         1 KI8       0.136500
     54 H23         90.4660    -5.8400    16.9390 ha         1 KI8       0.136500
     55 H24         89.6790    -7.5860    18.5120 ha         1 KI8       0.136000
@<TRIPOS>BOND
     1     1     5 1   
     2     1    13 1   
     3     1    15 1   
     4     2     3 2   
     5     2    16 1   
     6     2    17 1   
     7     3    14 1   
     8     3    32 1   
     9     4     8 1   
    10     4    14 1   
    11     4    15 2   
    12     5    10 ar  
    13     5    26 ar  
    14     6     7 1   
    15     6    18 1   
    16     6    33 1   
    17     6    34 1   
    18     7    19 1   
    19     7    35 1   
    20     7    36 1   
    21     8    37 1   
    22     8    38 1   
    23     8    39 1   
    24     9    20 ar  
    25     9    28 ar  
    26     9    40 1   
    27    10    30 ar  
    28    10    41 1   
    29    11    25 1   
    30    11    42 1   
    31    11    43 1   
    32    11    44 1   
    33    12    27 ar  
    34    12    28 ar  
    35    12    45 1   
    36    13    14 2   
    37    13    16 1   
    38    17    18 1   
    39    17    22 2   
    40    18    21 1   
    41    19    20 1   
    42    19    23 1   
    43    20    24 ar  
    44    21    23 1   
    45    21    46 1   
    46    21    47 1   
    47    23    48 1   
    48    23    49 1   
    49    24    25 1   
    50    24    27 ar  
    51    26    29 ar  
    52    26    50 1   
    53    27    51 1   
    54    28    52 1   
    55    29    31 ar  
    56    29    53 1   
    57    30    31 ar  
    58    30    54 1   
    59    31    55 1   
@<TRIPOS>SUBSTRUCTURE
     1 KI8         1 TEMP              0 ****  ****    0 ROOT
