@<TRIPOS>MOLECULE
KI9
   23    25     1     0     0
SMALL
abcg2


@<TRIPOS>ATOM
      1 CL1         -4.4940    -1.3530    -0.1260 cl         1 KI9      -0.167000
      2 C10         -2.8760    -0.7650    -0.0840 ca         1 KI9       0.040000
      3 C9          -2.6250     0.6190    -0.0470 ca         1 KI9       0.128000
      4 CL2         -3.9470     1.7100    -0.0450 cl         1 KI9      -0.142000
      5 C8          -1.3280     1.0930    -0.0130 ca         1 KI9       0.143000
      6 CL3         -1.0160     2.7810     0.0340 cl         1 KI9      -0.154000
      7 C11         -1.8490    -1.6950    -0.0880 ca         1 KI9       0.145100
      8 C12         -0.5490    -1.1920    -0.0540 ca         1 KI9      -0.023200
      9 C7          -0.2700     0.1820    -0.0160 cp         1 KI9      -0.045000
     10 C4           1.1670     0.3010     0.0080 cp         1 KI9      -0.076000
     11 C3           1.6600    -1.0200    -0.0170 ca         1 KI9       0.002800
     12 C2           3.0270    -1.2700    -0.0040 ca         1 KI9       0.086000
     13 CL5          3.5930    -2.8990    -0.0360 cl         1 KI9      -0.186000
     14 C5           2.0550     1.3760     0.0460 ca         1 KI9      -0.027000
     15 C6           3.4060     1.0950     0.0580 ca         1 KI9       0.084000
     16 CL6          4.5410     2.4050     0.1060 cl         1 KI9      -0.192000
     17 C1           3.9060    -0.2100     0.0330 ca         1 KI9      -0.055000
     18 N13          0.6200    -1.8970    -0.0560 na         1 KI9      -0.194600
     19 O14         -2.0030    -3.0200    -0.1230 oh         1 KI9      -0.530100
     20 H14         -2.9350    -3.2720    -0.1720 ho         1 KI9       0.490000
     21 H5           1.7090     2.3980     0.0650 ha         1 KI9       0.146000
     22 H1           4.9730    -0.3870     0.0430 ha         1 KI9       0.146000
     23 H13          0.6990    -2.9020    -0.0590 hn         1 KI9       0.381000
@<TRIPOS>BOND
     1     1     2 1   
     2     2     3 ar  
     3     2     7 ar  
     4     3     4 1   
     5     3     5 ar  
     6     5     6 1   
     7     5     9 ar  
     8     7     8 ar  
     9     7    19 1   
    10     8     9 ar  
    11     8    18 1   
    12     9    10 1   
    13    10    11 ar  
    14    10    14 ar  
    15    11    12 ar  
    16    11    18 1   
    17    12    13 1   
    18    12    17 ar  
    19    14    15 ar  
    20    14    21 1   
    21    15    16 1   
    22    15    17 ar  
    23    17    22 1   
    24    18    23 1   
    25    19    20 1   
@<TRIPOS>SUBSTRUCTURE
     1 KI9         1 TEMP              0 ****  ****    0 ROOT
