@<TRIPOS>MOLECULE
KI9
   23    25     1     0     0
SMALL
No Charge or Current Charge


@<TRIPOS>ATOM
      1 Cl1         -4.6170    -1.3540    -0.1270 cl         1 KI9      -0.167000
      2 C10         -2.9420    -0.7810    -0.0870 ca         1 KI9       0.040000
      3 C9          -2.6600     0.6130    -0.0480 ca         1 KI9       0.128000
      4 Cl2         -3.9970     1.7730    -0.0410 cl         1 KI9      -0.142000
      5 C8          -1.3200     1.0830    -0.0150 ca         1 KI9       0.143000
      6 Cl3         -0.9960     2.8190     0.0320 cl         1 KI9      -0.154000
      7 C11         -1.8870    -1.7220    -0.0930 ca         1 KI9       0.145100
      8 C12         -0.5800    -1.2280    -0.0600 ca         1 KI9      -0.023200
      9 C7          -0.2710     0.1320    -0.0220 cp         1 KI9      -0.045000
     10 C4           1.1930     0.2530     0.0050 cp         1 KI9      -0.076000
     11 C3           1.7340    -1.0330    -0.0180 ca         1 KI9       0.002800
     12 C2           3.1100    -1.2880    -0.0020 ca         1 KI9       0.086000
     13 Cl5          3.7360    -2.9330    -0.0320 cl         1 KI9      -0.186000
     14 C5           2.0640     1.3650     0.0460 ca         1 KI9      -0.027000
     15 C6           3.4580     1.1350     0.0620 ca         1 KI9       0.084000
     16 Cl6          4.5620     2.5040     0.1130 cl         1 KI9      -0.192000
     17 C1           3.9800    -0.1810     0.0390 ca         1 KI9      -0.055000
     18 N13          0.6440    -1.9130    -0.0570 na         1 KI9      -0.194600
     19 O14         -2.1200    -3.0720    -0.1290 oh         1 KI9      -0.530100
     20 H14         -3.0920    -3.2170    -0.1480 ho         1 KI9       0.490000
     21 H5           1.6870     2.3820     0.0640 ha         1 KI9       0.146000
     22 H1           5.0540    -0.3370     0.0520 ha         1 KI9       0.146000
     23 H13          0.7260    -2.9240    -0.0800 hn         1 KI9       0.381000
@<TRIPOS>BOND
     1     1     2 1   
     2     2     3 ar  
     3     2     7 ar  
     4     3     4 1   
     5     3     5 ar  
     6     5     6 1   
     7     5     9 ar  
     8     7     8 ar  
     9     7    19 1   
    10     8     9 ar  
    11     8    18 1   
    12     9    10 1   
    13    10    11 ar  
    14    10    14 ar  
    15    11    12 ar  
    16    11    18 1   
    17    12    13 1   
    18    12    17 ar  
    19    14    15 ar  
    20    14    21 1   
    21    15    16 1   
    22    15    17 ar  
    23    17    22 1   
    24    18    23 1   
    25    19    20 1   
@<TRIPOS>SUBSTRUCTURE
     1 KI9         1 TEMP              0 ****  ****    0 ROOT
