@<TRIPOS>MOLECULE
KIA
   20    20     1     0     0
SMALL
No Charge or Current Charge


@<TRIPOS>ATOM
      1 O2          -0.0020    -3.0810     0.0350 o          1 KIA      -0.520100
      2 C4           0.0040    -1.8610     0.0210 c          1 KIA       0.591500
      3 C5           1.2530    -1.0940     0.0140 cc         1 KIA      -0.382200
      4 C6           1.2760     0.2960    -0.0020 cd         1 KIA       0.077400
      5 O3           2.4830     0.9690    -0.0080 os         1 KIA      -0.302100
      6 C7           3.7500     0.2830     0.0030 c3         1 KIA       0.138900
      7 C1           0.0190     1.1150    -0.0140 c          1 KIA       0.567500
      8 O1           0.0250     2.3440    -0.0280 o          1 KIA      -0.429100
      9 C3          -1.2370    -1.0810     0.0100 cc         1 KIA      -0.382200
     10 C2          -1.2460     0.3080    -0.0060 cd         1 KIA       0.077400
     11 O4          -2.4470     0.9930    -0.0160 os         1 KIA      -0.302100
     12 C8          -3.7210     0.3210    -0.0110 c3         1 KIA       0.138900
     13 H5           2.1410    -1.7120     0.0230 ha         1 KIA       0.211000
     14 H7           3.8570    -0.3560    -0.8830 h1         1 KIA       0.050867
     15 H7A          4.5730     1.0090    -0.0040 h1         1 KIA       0.050867
     16 H7B          3.8540    -0.3350     0.9030 h1         1 KIA       0.050867
     17 H3          -2.1310    -1.6910     0.0150 ha         1 KIA       0.211000
     18 H8          -3.8310    -0.3180    -0.8960 h1         1 KIA       0.050867
     19 H8A         -3.8340    -0.2970     0.8890 h1         1 KIA       0.050867
     20 H8B         -4.5360     1.0550    -0.0200 h1         1 KIA       0.050867
@<TRIPOS>BOND
     1     1     2 2   
     2     2     3 1   
     3     2     9 1   
     4     3     4 2   
     5     3    13 1   
     6     4     5 1   
     7     4     7 1   
     8     5     6 1   
     9     6    14 1   
    10     6    15 1   
    11     6    16 1   
    12     7     8 2   
    13     7    10 1   
    14     9    10 2   
    15     9    17 1   
    16    10    11 1   
    17    11    12 1   
    18    12    18 1   
    19    12    19 1   
    20    12    20 1   
@<TRIPOS>SUBSTRUCTURE
     1 KIA         1 TEMP              0 ****  ****    0 ROOT
