@<TRIPOS>MOLECULE
KIA
   20    20     1     0     0
SMALL
bcc


@<TRIPOS>ATOM
      1 O2          -0.0050    -3.1170     0.0240 o          1 KIA      -0.520100
      2 C4           0.0050    -1.8990     0.0130 c          1 KIA       0.591500
      3 C5           1.2700    -1.1600     0.0060 cc         1 KIA      -0.332200
      4 C6           1.2890     0.1820    -0.0070 cd         1 KIA       0.077400
      5 O3           2.3470     0.9710    -0.0100 os         1 KIA      -0.278900
      6 C7           3.6260     0.3620     0.0090 c3         1 KIA       0.115700
      7 C1           0.0180     0.9690    -0.0200 c          1 KIA       0.567500
      8 O1           0.0220     2.1710    -0.0350 o          1 KIA      -0.429100
      9 C3          -1.2540    -1.1460     0.0060 cc         1 KIA      -0.332200
     10 C2          -1.2610     0.1950    -0.0110 cd         1 KIA       0.077400
     11 O4          -2.3140     0.9960    -0.0190 os         1 KIA      -0.278900
     12 C8          -3.5940     0.4000    -0.0050 c3         1 KIA       0.115700
     13 H5           2.1700    -1.7590     0.0150 ha         1 KIA       0.161000
     14 H7           3.7820    -0.2630    -0.8730 h1         1 KIA       0.050867
     15 H7A          4.3540     1.1680     0.0070 h1         1 KIA       0.050867
     16 H7B          3.7630    -0.2440     0.9060 h1         1 KIA       0.050867
     17 H3          -2.1580    -1.7410     0.0220 ha         1 KIA       0.161000
     18 H8          -3.7490    -0.2370    -0.8800 h1         1 KIA       0.050867
     19 H8A         -3.7460    -0.1960     0.8980 h1         1 KIA       0.050867
     20 H8B         -4.3150     1.2120    -0.0220 h1         1 KIA       0.050867
@<TRIPOS>BOND
     1     1     2 2   
     2     2     3 1   
     3     2     9 1   
     4     3     4 2   
     5     3    13 1   
     6     4     5 1   
     7     4     7 1   
     8     5     6 1   
     9     6    14 1   
    10     6    15 1   
    11     6    16 1   
    12     7     8 2   
    13     7    10 1   
    14     9    10 2   
    15     9    17 1   
    16    10    11 1   
    17    11    12 1   
    18    12    18 1   
    19    12    19 1   
    20    12    20 1   
@<TRIPOS>SUBSTRUCTURE
     1 KIA         1 TEMP              0 ****  ****    0 ROOT
