@<TRIPOS>MOLECULE
KIB
   22    22     1     0     0
SMALL
No Charge or Current Charge


@<TRIPOS>ATOM
      1 O1           0.0800    -2.3610    -0.0190 oh         1 KIB      -0.517100
      2 C1           0.0900    -0.9860    -0.0380 ca         1 KIB       0.042100
      3 C6           1.3100    -0.2670    -0.0280 ca         1 KIB       0.146100
      4 O3           2.5010    -0.9730     0.0010 os         1 KIB      -0.339600
      5 C7           3.7850    -0.3230     0.0130 c3         1 KIB       0.151400
      6 C5           1.2830     1.1440    -0.0480 ca         1 KIB      -0.261000
      7 C2          -1.1390    -0.2910    -0.0680 ca         1 KIB       0.146100
      8 O4          -2.3050    -1.0370    -0.0760 os         1 KIB      -0.339600
      9 C8          -3.6090    -0.4290    -0.1060 c3         1 KIB       0.151400
     10 C3          -1.1490     1.1200    -0.0870 ca         1 KIB      -0.261000
     11 C4           0.0610     1.8240    -0.0770 ca         1 KIB       0.175100
     12 O2           0.0570     3.1830    -0.0960 oh         1 KIB      -0.533100
     13 HO1         -0.8610    -2.6450    -0.0300 ho         1 KIB       0.470000
     14 H7           4.5880    -1.0690     0.0370 h1         1 KIB       0.042200
     15 H7A          3.9190     0.2930    -0.8860 h1         1 KIB       0.042200
     16 H7B          3.8900     0.3170     0.8990 h1         1 KIB       0.042200
     17 H5           2.1980     1.7270    -0.0410 ha         1 KIB       0.128000
     18 H8          -4.3880    -1.2010    -0.1080 h1         1 KIB       0.042200
     19 H8A         -3.7640     0.2070     0.7750 h1         1 KIB       0.042200
     20 H8B         -3.7340     0.1820    -1.0090 h1         1 KIB       0.042200
     21 H3          -2.0840     1.6720    -0.1100 ha         1 KIB       0.128000
     22 HO2         -0.8750     3.4870    -0.1150 ho         1 KIB       0.463000
@<TRIPOS>BOND
     1     1     2 1   
     2     1    13 1   
     3     2     3 ar  
     4     2     7 ar  
     5     3     4 1   
     6     3     6 ar  
     7     4     5 1   
     8     5    14 1   
     9     5    15 1   
    10     5    16 1   
    11     6    11 ar  
    12     6    17 1   
    13     7     8 1   
    14     7    10 ar  
    15     8     9 1   
    16     9    18 1   
    17     9    19 1   
    18     9    20 1   
    19    10    11 ar  
    20    10    21 1   
    21    11    12 1   
    22    12    22 1   
@<TRIPOS>SUBSTRUCTURE
     1 KIB         1 TEMP              0 ****  ****    0 ROOT
