@<TRIPOS>MOLECULE
KIB
   22    22     1     0     0
SMALL
abcg2


@<TRIPOS>ATOM
      1 O1           0.1350    -2.3170    -0.0130 oh         1 KIB      -0.517100
      2 C1           0.0770    -0.9610    -0.0340 ca         1 KIB       0.042100
      3 C6           1.2740    -0.2430    -0.0300 ca         1 KIB       0.146100
      4 O3           2.3930    -0.9910    -0.0040 os         1 KIB      -0.339600
      5 C7           3.6410    -0.3280     0.0090 c3         1 KIB       0.151400
      6 C5           1.2630     1.1490    -0.0520 ca         1 KIB      -0.261000
      7 C2          -1.1290    -0.2630    -0.0590 ca         1 KIB       0.146100
      8 O4          -2.2300    -1.0460    -0.0600 os         1 KIB      -0.339600
      9 C8          -3.5020    -0.4320    -0.1060 c3         1 KIB       0.151400
     10 C3          -1.1540     1.1290    -0.0820 ca         1 KIB      -0.261000
     11 C4           0.0490     1.8250    -0.0770 ca         1 KIB       0.175100
     12 O2           0.0950     3.1760    -0.0970 oh         1 KIB      -0.533100
     13 HO1         -0.7590    -2.6760    -0.0430 ho         1 KIB       0.470000
     14 H7           4.4030    -1.1030     0.0410 h1         1 KIB       0.042200
     15 H7A          3.7910     0.2780    -0.8880 h1         1 KIB       0.042200
     16 H7B          3.7540     0.3120     0.8880 h1         1 KIB       0.042200
     17 H5           2.1800     1.7210    -0.0470 ha         1 KIB       0.128000
     18 H8          -4.2340    -1.2350    -0.1050 h1         1 KIB       0.042200
     19 H8A         -3.6760     0.2060     0.7640 h1         1 KIB       0.042200
     20 H8B         -3.6310     0.1630    -1.0140 h1         1 KIB       0.042200
     21 H3          -2.0910     1.6720    -0.1020 ha         1 KIB       0.128000
     22 HO2         -0.7970     3.5390    -0.1060 ho         1 KIB       0.463000
@<TRIPOS>BOND
     1     1     2 1   
     2     1    13 1   
     3     2     3 ar  
     4     2     7 ar  
     5     3     4 1   
     6     3     6 ar  
     7     4     5 1   
     8     5    14 1   
     9     5    15 1   
    10     5    16 1   
    11     6    11 ar  
    12     6    17 1   
    13     7     8 1   
    14     7    10 ar  
    15     8     9 1   
    16     9    18 1   
    17     9    19 1   
    18     9    20 1   
    19    10    11 ar  
    20    10    21 1   
    21    11    12 1   
    22    12    22 1   
@<TRIPOS>SUBSTRUCTURE
     1 KIB         1 TEMP              0 ****  ****    0 ROOT
