@<TRIPOS>MOLECULE
KIC
   84    89     1     0     0
SMALL
abcg2


@<TRIPOS>ATOM
      1 N1          15.9890     6.7710    12.7380 ns         1 KIC      -0.478900
      2 C7          18.2620     7.6220    15.6820 c5         1 KIC       0.113300
      3 C8          18.4920    10.6250    12.4320 cc         1 KIC       0.521700
      4 N2          19.4850     9.8070    12.9680 na         1 KIC      -0.270300
      5 C9          20.3240    11.2090    11.4830 ca         1 KIC      -0.081600
      6 O1          18.5720     7.6850    13.3210 os         1 KIC      -0.435000
      7 C1          15.6930     5.5050    10.6930 c3         1 KIC      -0.154400
      8 O5          16.8050    11.4130     8.0560 oh         1 KIC      -0.681000
      9 C5          19.3640     8.7070    13.8940 c5         1 KIC       0.317300
     10 C6          18.7060     9.0240    15.2350 c5         1 KIC       0.080300
     11 N3          18.9770    11.4780    11.5450 nd         1 KIC      -0.556100
     12 C4          17.8660     6.9640    14.3620 c5         1 KIC       0.143300
     13 O4          16.1450     8.9340    10.1090 os         1 KIC      -0.440000
     14 C3          16.3580     7.0180    14.1150 c3         1 KIC       0.105000
     15 O3          19.3580     6.9180    16.2520 oh         1 KIC      -0.713000
     16 C2          16.0850     5.5670    12.1570 c          1 KIC       0.598100
     17 C           14.6230     4.4540    10.4170 c3         1 KIC       0.161800
     18 O           16.4870     4.5650    12.7610 o          1 KIC      -0.663100
     19 C10         21.3680    11.7490    10.7050 ca         1 KIC       0.441900
     20 C11         22.7830    10.2360    11.7330 ca         1 KIC       0.165900
     21 C12         20.6590    10.1710    12.3490 ca         1 KIC       0.149500
     22 C14         15.9340    10.4210    12.8930 c1         1 KIC      -0.030100
     23 C15         14.4890    10.2130    12.9570 c3         1 KIC       0.242900
     24 C16         13.8540     9.3320    10.7420 c3         1 KIC       0.178800
     25 C17         15.0670     9.8700    10.0190 c5         1 KIC       0.121300
     26 C18         17.0740     9.2070     9.0670 c5         1 KIC       0.264300
     27 C19         16.3400    10.0730     8.0120 c5         1 KIC       0.132300
     28 C20         14.8890    10.0290     8.5050 c5         1 KIC       0.148300
     29 C21         17.0120     7.0180     7.7720 cc         1 KIC       0.410700
     30 C22         18.8210     6.1170     8.4610 ca         1 KIC      -0.105600
     31 C23         18.7710     7.3770     9.0520 ca         1 KIC       0.146500
     32 C24         20.6710     7.0480    10.1330 ca         1 KIC       0.184900
     33 C25         19.9270     5.3110     8.7950 ca         1 KIC       0.445900
     34 C26         12.9970     8.2820    12.7620 c3         1 KIC       0.020800
     35 C27         11.6140     8.9570    12.9390 c          1 KIC       0.689000
     36 N10         19.6720     7.8940     9.8920 nb         1 KIC      -0.202000
     37 N11         20.8430     5.8140     9.6450 nb         1 KIC      -0.299000
     38 N12         20.1040     4.0750     8.3010 nv         1 KIC      -1.074900
     39 N5          22.6020    11.2330    10.8590 nb         1 KIC      -0.307000
     40 N6          21.8770     9.6480    12.5140 nb         1 KIC      -0.218000
     41 N7          14.0830     9.0490    12.1580 n3         1 KIC      -0.741600
     42 N8          17.6060     7.9530     8.5920 na         1 KIC      -0.294300
     43 N9          17.7090     5.9150     7.6580 nd         1 KIC      -0.564100
     44 O2          19.6460     9.6230    16.1070 oh         1 KIC      -0.712000
     45 O6          14.1580    11.1690     8.1040 oh         1 KIC      -0.690000
     46 O7          11.4880    10.1660    12.6300 o          1 KIC      -0.732000
     47 O8          10.7200     8.2020    13.4020 o          1 KIC      -0.732000
     48 H1          15.5560     7.5460    12.2380 hn         1 KIC       0.374500
     49 H2          17.4250     7.6620    16.3840 h1         1 KIC       0.057700
     50 H3          16.5980     5.2370    10.1430 hc         1 KIC       0.071700
     51 H4          15.3660     6.4810    10.3390 hc         1 KIC       0.071700
     52 H6          20.3870     8.3640    14.0680 h2         1 KIC       0.105700
     53 H7          17.8350     9.6630    15.0900 h1         1 KIC       0.073700
     54 H8          18.2090     5.9310    14.3390 h1         1 KIC       0.106700
     55 H9          15.9730     8.0020    14.3770 h1         1 KIC       0.051700
     56 H10         15.8860     6.2860    14.7760 h1         1 KIC       0.051700
     57 H11         19.8420     7.5520    16.8020 ho         1 KIC       0.515000
     58 H17         14.4880     4.3750     9.3370 h1         1 KIC       0.029700
     59 H18         14.9820     3.4810    10.7730 h1         1 KIC       0.029700
     60 H19         23.7970     9.8600    11.8110 h5         1 KIC       0.039100
     61 H20         13.9720    11.1290    12.6510 h1         1 KIC       0.076700
     62 H21         14.2060    10.0320    13.9960 h1         1 KIC       0.076700
     63 H22         13.0340    10.0500    10.6050 h1         1 KIC       0.062200
     64 H23         13.5600     8.3930    10.2680 h1         1 KIC       0.062200
     65 H24         15.3740    10.8350    10.4360 h1         1 KIC       0.079700
     66 H25         17.9220     9.7690     9.4620 h2         1 KIC       0.109700
     67 H26         16.4460     9.6650     7.0060 h1         1 KIC       0.049700
     68 H27         14.4290     9.1150     8.1160 h1         1 KIC       0.039700
     69 H28         16.0640     7.2090     7.2930 h5         1 KIC       0.064800
     70 H29         21.4390     7.4000    10.8130 h5         1 KIC       0.055100
     71 H30         12.8540     7.3790    12.1640 h1         1 KIC       0.048200
     72 H31         13.3220     7.9450    13.7500 h1         1 KIC       0.048200
     73 H32         20.8790     3.5170     8.6170 hn         1 KIC       0.502000
     74 H33         19.4070     3.6530     7.7120 hn         1 KIC       0.502000
     75 H35         19.1770    10.1890    16.7330 ho         1 KIC       0.511000
     76 H36         13.2170    10.9620     8.1680 ho         1 KIC       0.512000
     77 N4          21.1790    12.7450     9.8270 nv         1 KIC      -1.077900
     78 N           13.3350     4.8430    11.0080 n8         1 KIC      -1.004200
     79 H12         21.9490    13.0750     9.2690 hn         1 KIC       0.503500
     80 H13         20.2610    13.1250     9.6700 hn         1 KIC       0.503500
     81 H14         12.6330     4.1450    10.7850 hn         1 KIC       0.397500
     82 H15         13.4050     4.8530    12.0210 hn         1 KIC       0.397500
     83 C13         17.1260    10.5150    12.7530 cg         1 KIC      -0.204200
     84 H5          17.7060    11.4330     7.7070 ho         1 KIC       0.498000
@<TRIPOS>BOND
     1     1    14 1   
     2     1    16 1   
     3     1    48 1   
     4     2    10 1   
     5     2    12 1   
     6     2    15 1   
     7     2    49 1   
     8     3     4 1   
     9     3    11 2   
    10     3    83 1   
    11     4     9 1   
    12     4    21 1   
    13     5    11 1   
    14     5    19 ar  
    15     5    21 ar  
    16     6     9 1   
    17     6    12 1   
    18     7    16 1   
    19     7    17 1   
    20     7    50 1   
    21     7    51 1   
    22     8    27 1   
    23     8    84 1   
    24     9    10 1   
    25     9    52 1   
    26    10    44 1   
    27    10    53 1   
    28    12    14 1   
    29    12    54 1   
    30    13    25 1   
    31    13    26 1   
    32    14    55 1   
    33    14    56 1   
    34    15    57 1   
    35    16    18 2   
    36    17    58 1   
    37    17    59 1   
    38    17    78 1   
    39    19    39 ar  
    40    19    77 1   
    41    20    39 ar  
    42    20    40 ar  
    43    20    60 1   
    44    21    40 ar  
    45    22    23 1   
    46    22    83 3   
    47    23    41 1   
    48    23    61 1   
    49    23    62 1   
    50    24    25 1   
    51    24    41 1   
    52    24    63 1   
    53    24    64 1   
    54    25    28 1   
    55    25    65 1   
    56    26    27 1   
    57    26    42 1   
    58    26    66 1   
    59    27    28 1   
    60    27    67 1   
    61    28    45 1   
    62    28    68 1   
    63    29    42 1   
    64    29    43 2   
    65    29    69 1   
    66    30    31 ar  
    67    30    33 ar  
    68    30    43 1   
    69    31    36 ar  
    70    31    42 1   
    71    32    36 ar  
    72    32    37 ar  
    73    32    70 1   
    74    33    37 ar  
    75    33    38 1   
    76    34    35 1   
    77    34    41 1   
    78    34    71 1   
    79    34    72 1   
    80    35    46 1   
    81    35    47 1   
    82    38    73 1   
    83    38    74 1   
    84    44    75 1   
    85    45    76 1   
    86    77    79 1   
    87    77    80 1   
    88    78    81 1   
    89    78    82 1   
@<TRIPOS>SUBSTRUCTURE
     1 KIC         1 TEMP              0 ****  ****    0 ROOT
