@<TRIPOS>MOLECULE
KIC
   84    89     1     0     0
SMALL
No Charge or Current Charge


@<TRIPOS>ATOM
      1 N1          15.8930     6.7730    12.7290 ns         1 KIC      -0.478900
      2 C7          18.3850     7.5040    15.6890 c5         1 KIC       0.113300
      3 C8          18.6070    10.6560    12.4660 cc         1 KIC       0.521700
      4 N2          19.5810     9.7700    12.9420 na         1 KIC      -0.270300
      5 C9          20.4820    11.2490    11.6110 ca         1 KIC      -0.081600
      6 O1          18.6250     7.6210    13.2870 os         1 KIC      -0.435000
      7 C1          15.5300     5.5980    10.5980 c3         1 KIC      -0.154400
      8 O5          16.5930    11.3950     7.9150 oh         1 KIC      -0.681000
      9 C5          19.3940     8.6750    13.8960 c5         1 KIC       0.317300
     10 C6          18.6870     8.9670    15.2620 c5         1 KIC       0.080300
     11 N3          19.1250    11.5820    11.6420 nd         1 KIC      -0.556100
     12 C4          17.9090     6.8930    14.3240 c5         1 KIC       0.143300
     13 O4          16.1750     8.9000    10.0510 os         1 KIC      -0.440000
     14 C3          16.3750     7.0250    14.0940 c3         1 KIC       0.105000
     15 O3          19.5760     6.8920    16.2010 oh         1 KIC      -0.713000
     16 C2          16.1120     5.6210    12.0100 c          1 KIC       0.598100
     17 C           14.4750     4.4960    10.4100 c3         1 KIC       0.161800
     18 O           16.7490     4.6800    12.4640 o          1 KIC      -0.663100
     19 C10         21.5380    11.8590    10.9030 ca         1 KIC       0.441900
     20 C11         22.9690    10.3010    11.7770 ca         1 KIC       0.165900
     21 C12         20.7690    10.1550    12.3880 ca         1 KIC       0.149500
     22 C14         16.0110    10.4540    12.8620 c1         1 KIC      -0.030100
     23 C15         14.5640    10.2280    12.9820 c3         1 KIC       0.242900
     24 C16         13.8350     9.3000    10.7510 c3         1 KIC       0.178800
     25 C17         15.0460     9.7810     9.8970 c5         1 KIC       0.121300
     26 C18         17.1060     9.1770     8.9810 c5         1 KIC       0.264300
     27 C19         16.3030     9.9900     7.8900 c5         1 KIC       0.132300
     28 C20         14.8310     9.7620     8.3580 c5         1 KIC       0.148300
     29 C21         17.2740     7.0690     7.5490 cc         1 KIC       0.410700
     30 C22         18.9760     6.1380     8.4800 ca         1 KIC      -0.105600
     31 C23         18.7890     7.3120     9.1640 ca         1 KIC       0.146500
     32 C24         20.5670     6.8160    10.5120 ca         1 KIC       0.184900
     33 C25         20.0360     5.2990     8.8820 ca         1 KIC       0.445900
     34 C26         12.8850     8.3980    12.8620 c3         1 KIC       0.020800
     35 C27         11.5610     9.2300    13.0030 c          1 KIC       0.689000
     36 N10         19.5800     7.6830    10.1890 nb         1 KIC      -0.202000
     37 N11         20.8370     5.6330     9.9060 nb         1 KIC      -0.299000
     38 N12         20.3050     4.1140     8.2710 nv         1 KIC      -1.074900
     39 N5          22.7910    11.3830    10.9810 nb         1 KIC      -0.307000
     40 N6          22.0170     9.6560    12.4920 nb         1 KIC      -0.218000
     41 N7          14.0790     9.0420    12.2100 n3         1 KIC      -0.741600
     42 N8          17.7090     7.9080     8.5810 na         1 KIC      -0.294300
     43 N9          18.0370     5.9630     7.4580 nd         1 KIC      -0.564100
     44 O2          19.5200     9.6330    16.2360 oh         1 KIC      -0.712000
     45 O6          13.9630    10.8030     7.8740 oh         1 KIC      -0.690000
     46 O7          11.4150     9.9280    13.9980 o          1 KIC      -0.732000
     47 O8          10.7240     9.1550    12.1120 o          1 KIC      -0.732000
     48 H1          15.3540     7.5120    12.2730 hn         1 KIC       0.374500
     49 H2          17.5870     7.4670    16.4440 h1         1 KIC       0.057700
     50 H3          16.3530     5.3910     9.9060 hc         1 KIC       0.071700
     51 H4          15.0930     6.5670    10.3430 hc         1 KIC       0.071700
     52 H6          20.4000     8.2890    14.1050 h2         1 KIC       0.105700
     53 H7          17.7480     9.5180    15.1180 h1         1 KIC       0.073700
     54 H8          18.1790     5.8310    14.2610 h1         1 KIC       0.106700
     55 H9          16.0590     8.0360    14.3780 h1         1 KIC       0.051700
     56 H10         15.8630     6.3280    14.7710 h1         1 KIC       0.051700
     57 H11         20.0490     7.6420    16.6400 ho         1 KIC       0.515000
     58 H17         14.2240     4.4250     9.3420 h1         1 KIC       0.029700
     59 H18         14.8760     3.5250    10.7320 h1         1 KIC       0.029700
     60 H19         23.9820     9.9090    11.8490 h5         1 KIC       0.039100
     61 H20         14.0320    11.1400    12.6780 h1         1 KIC       0.076700
     62 H21         14.3620    10.0900    14.0540 h1         1 KIC       0.076700
     63 H22         13.0380    10.0470    10.6360 h1         1 KIC       0.062200
     64 H23         13.4630     8.3780    10.2840 h1         1 KIC       0.062200
     65 H24         15.3330    10.7870    10.2300 h1         1 KIC       0.079700
     66 H25         17.9280     9.7980     9.3600 h2         1 KIC       0.109700
     67 H26         16.4640     9.5940     6.8790 h1         1 KIC       0.049700
     68 H27         14.4730     8.7760     8.0290 h1         1 KIC       0.039700
     69 H28         16.4170     7.3020     6.9280 h5         1 KIC       0.064800
     70 H29         21.2100     7.0970    11.3440 h5         1 KIC       0.055100
     71 H30         12.6230     7.4820    12.3160 h1         1 KIC       0.048200
     72 H31         13.1580     8.0730    13.8750 h1         1 KIC       0.048200
     73 H32         20.8670     3.4350     8.7750 hn         1 KIC       0.502000
     74 H33         19.5920     3.7470     7.6460 hn         1 KIC       0.502000
     75 H35         19.5480    10.5930    16.0030 ho         1 KIC       0.511000
     76 H36         13.0580    10.4210     7.7900 ho         1 KIC       0.512000
     77 N4          21.3600    12.9420    10.1010 nv         1 KIC      -1.077900
     78 N           13.2350     4.7800    11.1500 n8         1 KIC      -1.004200
     79 H12         22.0760    13.1470     9.4090 hn         1 KIC       0.503500
     80 H13         20.4020    13.1810     9.8530 hn         1 KIC       0.503500
     81 H14         12.5620     4.0230    10.9770 hn         1 KIC       0.397500
     82 H15         13.4190     4.7080    12.1570 hn         1 KIC       0.397500
     83 C13         17.2100    10.5760    12.7080 cg         1 KIC      -0.204200
     84 H5          15.7020    11.8100     7.7990 ho         1 KIC       0.498000
@<TRIPOS>BOND
     1     1    14 1   
     2     1    16 1   
     3     1    48 1   
     4     2    10 1   
     5     2    12 1   
     6     2    15 1   
     7     2    49 1   
     8     3     4 1   
     9     3    11 2   
    10     3    83 1   
    11     4     9 1   
    12     4    21 1   
    13     5    11 1   
    14     5    19 ar  
    15     5    21 ar  
    16     6     9 1   
    17     6    12 1   
    18     7    16 1   
    19     7    17 1   
    20     7    50 1   
    21     7    51 1   
    22     8    27 1   
    23     8    84 1   
    24     9    10 1   
    25     9    52 1   
    26    10    44 1   
    27    10    53 1   
    28    12    14 1   
    29    12    54 1   
    30    13    25 1   
    31    13    26 1   
    32    14    55 1   
    33    14    56 1   
    34    15    57 1   
    35    16    18 2   
    36    17    58 1   
    37    17    59 1   
    38    17    78 1   
    39    19    39 ar  
    40    19    77 1   
    41    20    39 ar  
    42    20    40 ar  
    43    20    60 1   
    44    21    40 ar  
    45    22    23 1   
    46    22    83 3   
    47    23    41 1   
    48    23    61 1   
    49    23    62 1   
    50    24    25 1   
    51    24    41 1   
    52    24    63 1   
    53    24    64 1   
    54    25    28 1   
    55    25    65 1   
    56    26    27 1   
    57    26    42 1   
    58    26    66 1   
    59    27    28 1   
    60    27    67 1   
    61    28    45 1   
    62    28    68 1   
    63    29    42 1   
    64    29    43 2   
    65    29    69 1   
    66    30    31 ar  
    67    30    33 ar  
    68    30    43 1   
    69    31    36 ar  
    70    31    42 1   
    71    32    36 ar  
    72    32    37 ar  
    73    32    70 1   
    74    33    37 ar  
    75    33    38 1   
    76    34    35 1   
    77    34    41 1   
    78    34    71 1   
    79    34    72 1   
    80    35    46 1   
    81    35    47 1   
    82    38    73 1   
    83    38    74 1   
    84    44    75 1   
    85    45    76 1   
    86    77    79 1   
    87    77    80 1   
    88    78    81 1   
    89    78    82 1   
@<TRIPOS>SUBSTRUCTURE
     1 KIC         1 TEMP              0 ****  ****    0 ROOT
