@<TRIPOS>MOLECULE
KID
   51    54     1     0     0
SMALL
bcc


@<TRIPOS>ATOM
      1 C10        -40.6870     2.6060    34.5490 c6         1 KID       0.200800
      2 C11        -39.6930     3.7350    34.3050 c6         1 KID      -0.106900
      3 C12        -40.1650     4.7480    33.2560 c6         1 KID      -0.036000
      4 C13        -40.5830     3.9770    31.9940 c6         1 KID      -0.106900
      5 C14        -41.4990     2.7900    32.2770 c6         1 KID       0.200800
      6 C15        -39.0090     5.6830    32.9090 c3         1 KID      -0.079100
      7 C16        -41.3590     5.5770    33.7590 c3         1 KID       0.154800
      8 C18        -37.4300    -1.8510    31.6490 cc         1 KID      -0.029000
      9 C19        -37.2770    -1.2970    30.3650 cc         1 KID      -0.201000
     10 C2         -40.1340     0.8910    32.9220 cc         1 KID       0.663800
     11 C20        -38.0860    -0.1810    30.2790 cd         1 KID      -0.106300
     12 C21        -36.7450    -3.0430    32.1570 ca         1 KID       0.013000
     13 C22        -36.8840    -4.2530    31.4810 ca         1 KID      -0.107000
     14 C23        -36.2300    -5.3960    31.9100 ca         1 KID      -0.124000
     15 C24        -35.4170    -5.3530    33.0300 ca         1 KID      -0.113000
     16 C25        -35.2560    -4.1540    33.7080 ca         1 KID       0.024400
     17 C26        -35.9080    -3.0030    33.2760 ca         1 KID       0.055400
     18 C4         -39.0410    -1.1750    33.5640 c          1 KID       0.754100
     19 C5         -38.3540    -1.0540    32.3090 cd         1 KID      -0.223900
     20 N1         -39.5250     0.9840    31.7890 n2         1 KID      -0.634100
     21 N17        -41.0840     6.2740    35.0070 n8         1 KID      -0.886800
     22 N3         -40.0010    -0.1900    33.7790 n          1 KID      -0.427300
     23 N6         -38.7300    -0.0550    31.4550 na         1 KID       0.240000
     24 N9         -40.9920     1.8880    33.3060 nh         1 KID      -0.724600
     25 O7         -38.8700    -2.0780    34.3590 o          1 KID      -0.577500
     26 CL7        -35.6400    -1.5180    34.1020 cl         1 KID      -0.076400
     27 CL8        -34.2250    -4.1080    35.0900 cl         1 KID      -0.088400
     28 H1         -41.6290     2.9840    34.9540 h1         1 KID       0.059200
     29 H2         -40.2820     1.9250    35.2950 h1         1 KID       0.059200
     30 H3         -38.7450     3.2950    33.9740 hc         1 KID       0.058950
     31 H4         -39.4730     4.2330    35.2530 hc         1 KID       0.058950
     32 H5         -39.6890     3.6220    31.4780 hc         1 KID       0.058950
     33 H6         -41.0930     4.6520    31.2990 hc         1 KID       0.058950
     34 H7         -42.4730     3.1380    32.6300 h1         1 KID       0.059200
     35 H8         -41.6830     2.2240    31.3650 h1         1 KID       0.059200
     36 H9         -38.6950     6.2640    33.7760 hc         1 KID       0.040033
     37 H10        -38.1460     5.1170    32.5510 hc         1 KID       0.040033
     38 H11        -39.2920     6.3850    32.1210 hc         1 KID       0.040033
     39 H12        -41.5780     6.3270    32.9940 h1         1 KID       0.026700
     40 H13        -42.2560     4.9450    33.8200 h1         1 KID       0.026700
     41 H14        -36.6240    -1.6630    29.5880 ha         1 KID       0.161000
     42 H15        -38.2300     0.5330    29.4850 h4         1 KID       0.182000
     43 H16        -37.5270    -4.2930    30.6120 ha         1 KID       0.141000
     44 H17        -36.3550    -6.3280    31.3760 ha         1 KID       0.138000
     45 H18        -34.9060    -6.2400    33.3780 ha         1 KID       0.147000
     46 H19        -41.2350    -1.4840    34.8560 h1         1 KID       0.055367
     47 H20        -40.5040    -0.2120    35.8380 h1         1 KID       0.055367
     48 H21        -41.8270     0.1700    34.7230 h1         1 KID       0.055367
     49 H22        -41.7870     6.9880    35.1500 hn         1 KID       0.337300
     50 H23        -41.1870     5.6380    35.7870 hn         1 KID       0.337300
     51 C8         -40.9410    -0.4380    34.8670 c3         1 KID       0.086300
@<TRIPOS>BOND
     1     1     2 1   
     2     1    24 1   
     3     1    28 1   
     4     1    29 1   
     5     2     3 1   
     6     2    30 1   
     7     2    31 1   
     8     3     4 1   
     9     3     6 1   
    10     3     7 1   
    11     4     5 1   
    12     4    32 1   
    13     4    33 1   
    14     5    24 1   
    15     5    34 1   
    16     5    35 1   
    17     6    36 1   
    18     6    37 1   
    19     6    38 1   
    20     7    21 1   
    21     7    39 1   
    22     7    40 1   
    23     8     9 1   
    24     8    12 1   
    25     8    19 2   
    26     9    11 2   
    27     9    41 1   
    28    10    20 2   
    29    10    22 1   
    30    10    24 1   
    31    11    23 1   
    32    11    42 1   
    33    12    13 ar  
    34    12    17 ar  
    35    13    14 ar  
    36    13    43 1   
    37    14    15 ar  
    38    14    44 1   
    39    15    16 ar  
    40    15    45 1   
    41    16    17 ar  
    42    16    27 1   
    43    17    26 1   
    44    18    19 1   
    45    18    22 1   
    46    18    25 2   
    47    19    23 1   
    48    20    23 1   
    49    21    49 1   
    50    21    50 1   
    51    22    51 1   
    52    46    51 1   
    53    47    51 1   
    54    48    51 1   
@<TRIPOS>SUBSTRUCTURE
     1 KID         1 TEMP              0 ****  ****    0 ROOT
