@<TRIPOS>MOLECULE
KID
   51    54     1     0     0
SMALL
No Charge or Current Charge


@<TRIPOS>ATOM
      1 C10        -40.1530     2.7860    34.5410 c6         1 KID       0.200800
      2 C11        -39.4870     4.1190    34.1160 c6         1 KID      -0.106900
      3 C12        -40.3830     4.9560    33.1500 c6         1 KID      -0.036000
      4 C13        -40.7460     4.0410    31.9390 c6         1 KID      -0.106900
      5 C14        -41.3850     2.6960    32.3710 c6         1 KID       0.200800
      6 C15        -39.5880     6.1950    32.6290 c3         1 KID      -0.079100
      7 C16        -41.6940     5.4750    33.8510 c3         1 KID       0.154800
      8 C18        -37.1250    -1.8610    31.7220 cc         1 KID      -0.029000
      9 C19        -36.9010    -1.2940    30.4400 cc         1 KID      -0.183000
     10 C2         -39.7460     0.9090    32.9680 cc         1 KID       0.663800
     11 C20        -37.5620    -0.0960    30.3430 cd         1 KID      -0.139000
     12 C21        -36.7280    -3.1920    32.1920 ca         1 KID       0.013000
     13 C22        -36.8320    -4.2790    31.3010 ca         1 KID      -0.089000
     14 C23        -36.4720    -5.5750    31.7040 ca         1 KID      -0.106000
     15 C24        -35.9750    -5.7940    32.9980 ca         1 KID      -0.095000
     16 C25        -35.8140    -4.7130    33.8800 ca         1 KID       0.116000
     17 C26        -36.1760    -3.4080    33.4810 ca         1 KID       0.147000
     18 C4         -38.8860    -1.2980    33.5480 c          1 KID       0.611600
     19 C5         -38.0680    -1.0760    32.3590 cd         1 KID      -0.274600
     20 N1         -39.0830     1.0420    31.8540 n2         1 KID      -0.634100
     21 N17        -41.4820     6.3610    35.0170 n8         1 KID      -0.997200
     22 N3         -39.7420    -0.2190    33.8060 n          1 KID      -0.360300
     23 N6         -38.2350     0.0140    31.5510 na         1 KID       0.341400
     24 N9         -40.5270     1.9760    33.3520 nh         1 KID      -0.724600
     25 O7         -38.8680    -2.3170    34.2250 o          1 KID      -0.502000
     26 Cl7        -35.7870    -2.0400    34.5430 cl         1 KID      -0.168000
     27 Cl8        -35.1200    -5.0210    35.4740 cl         1 KID      -0.180000
     28 H1         -41.0430     2.9900    35.1530 h1         1 KID       0.059200
     29 H2         -39.4490     2.2320    35.1800 h1         1 KID       0.059200
     30 H3         -38.5320     3.8870    33.6240 hc         1 KID       0.058950
     31 H4         -39.2280     4.7010    35.0100 hc         1 KID       0.058950
     32 H5         -39.8410     3.8250    31.3550 hc         1 KID       0.058950
     33 H6         -41.4280     4.5660    31.2570 hc         1 KID       0.058950
     34 H7         -42.3760     2.8810    32.8110 h1         1 KID       0.059200
     35 H8         -41.5560     2.0760    31.4780 h1         1 KID       0.059200
     36 H9         -39.2530     6.8410    33.4500 hc         1 KID       0.040033
     37 H10        -38.6920     5.8910    32.0750 hc         1 KID       0.040033
     38 H11        -40.1970     6.8070    31.9530 hc         1 KID       0.040033
     39 H12        -42.2930     6.0270    33.1130 h1         1 KID       0.026700
     40 H13        -42.2960     4.6220    34.1890 h1         1 KID       0.026700
     41 H14        -36.2780    -1.7420    29.6710 ha         1 KID       0.143000
     42 H15        -37.6300     0.6390    29.5500 h4         1 KID       0.164000
     43 H16        -37.2240    -4.1230    30.2980 ha         1 KID       0.123000
     44 H17        -36.5780    -6.4090    31.0130 ha         1 KID       0.120000
     45 H18        -35.6920    -6.7960    33.3100 ha         1 KID       0.129000
     46 H19        -40.9500    -1.3980    35.1270 h1         1 KID       0.055367
     47 H20        -40.2010     0.0440    35.8660 h1         1 KID       0.055367
     48 H21        -41.6070     0.2020    34.7730 h1         1 KID       0.055367
     49 H22        -42.3930     6.5880    35.4350 hn         1 KID       0.392500
     50 H23        -41.0010     5.8340    35.7530 hn         1 KID       0.392500
     51 C8         -40.6770    -0.3490    34.9590 c3         1 KID       0.086300
@<TRIPOS>BOND
     1     1     2 1   
     2     1    24 1   
     3     1    28 1   
     4     1    29 1   
     5     2     3 1   
     6     2    30 1   
     7     2    31 1   
     8     3     4 1   
     9     3     6 1   
    10     3     7 1   
    11     4     5 1   
    12     4    32 1   
    13     4    33 1   
    14     5    24 1   
    15     5    34 1   
    16     5    35 1   
    17     6    36 1   
    18     6    37 1   
    19     6    38 1   
    20     7    21 1   
    21     7    39 1   
    22     7    40 1   
    23     8     9 1   
    24     8    12 1   
    25     8    19 2   
    26     9    11 2   
    27     9    41 1   
    28    10    20 2   
    29    10    22 1   
    30    10    24 1   
    31    11    23 1   
    32    11    42 1   
    33    12    13 ar  
    34    12    17 ar  
    35    13    14 ar  
    36    13    43 1   
    37    14    15 ar  
    38    14    44 1   
    39    15    16 ar  
    40    15    45 1   
    41    16    17 ar  
    42    16    27 1   
    43    17    26 1   
    44    18    19 1   
    45    18    22 1   
    46    18    25 2   
    47    19    23 1   
    48    20    23 1   
    49    21    49 1   
    50    21    50 1   
    51    22    51 1   
    52    46    51 1   
    53    47    51 1   
    54    48    51 1   
@<TRIPOS>SUBSTRUCTURE
     1 KID         1 TEMP              0 ****  ****    0 ROOT
