@<TRIPOS>MOLECULE
KIE
   35    37     1     0     0
SMALL
No Charge or Current Charge


@<TRIPOS>ATOM
      1 N1          93.4780    -7.2080    13.3420 nb         1 KIE      -0.250000
      2 C4          92.5170    -7.4450    14.2560 ca         1 KIE       0.295300
      3 C5          92.9300    -9.8030    14.0680 ca         1 KIE       0.285000
      4 C6          92.2330    -8.7680    14.6240 ca         1 KIE      -0.249200
      5 C13         94.7410    -2.7230    14.5910 ca         1 KIE       0.199000
      6 C15         92.5650    -3.6450    14.0200 ca         1 KIE      -0.022500
      7 C17         93.5240    -2.6240    13.8990 ca         1 KIE      -0.169000
      8 C21         97.1490    -9.5530    12.0440 c3         1 KIE      -0.118100
      9 N2          93.8960    -9.5760    13.1630 nb         1 KIE      -0.199000
     10 C3          94.1310    -8.2810    12.8370 ca         1 KIE       0.389900
     11 N7          91.3110    -9.2590    15.5140 na         1 KIE      -0.288600
     12 N8          92.4770   -11.0080    14.5840 nc         1 KIE      -0.655700
     13 C9          91.5060   -10.6430    15.4480 cd         1 KIE       0.440700
     14 S10         91.6110    -6.0690    14.9700 ss         1 KIE      -0.165300
     15 N11         95.1570    -8.0120    11.8860 nh         1 KIE      -0.773300
     16 C12         92.8290    -4.7630    14.8330 ca         1 KIE      -0.137000
     17 C16         94.0490    -4.8560    15.5300 ca         1 KIE      -0.022500
     18 C18         95.0060    -3.8340    15.4060 ca         1 KIE      -0.169000
     19 C19         95.9280    -9.0970    11.2260 c3         1 KIE       0.233800
     20 H1          91.6220    -3.5720    13.4810 ha         1 KIE       0.130000
     21 H2          93.3260    -1.7600    13.2710 ha         1 KIE       0.135500
     22 H3          96.4110    -6.5970    10.8750 h1         1 KIE       0.039033
     23 H4          94.7120    -6.1020    11.0420 h1         1 KIE       0.039033
     24 H5          95.8080    -6.0580    12.4520 h1         1 KIE       0.039033
     25 H6          97.6880   -10.3450    11.5120 hc         1 KIE       0.041033
     26 H7          97.8390    -8.7160    12.2070 hc         1 KIE       0.041033
     27 H8          96.8390    -9.9430    13.0210 hc         1 KIE       0.041033
     28 H9          90.6400    -8.7650    16.0900 hn         1 KIE       0.366000
     29 H11         90.9100   -11.3180    16.0520 h5         1 KIE       0.064800
     30 H12         94.2550    -5.7190    16.1600 ha         1 KIE       0.130000
     31 H13         95.9510    -3.9020    15.9390 ha         1 KIE       0.135500
     32 H14         95.2830    -9.9650    11.0290 h1         1 KIE       0.060200
     33 H15         96.2780    -8.7590    10.2400 h1         1 KIE       0.060200
     34 F14         95.6610    -1.7420    14.4730 f          1 KIE      -0.174000
     35 C20         95.5410    -6.6170    11.5450 c3         1 KIE       0.227100
@<TRIPOS>BOND
     1     1     2 ar  
     2     1    10 ar  
     3     2     4 ar  
     4     2    14 1   
     5     3     4 ar  
     6     3     9 ar  
     7     3    12 1   
     8     4    11 1   
     9     5     7 ar  
    10     5    18 ar  
    11     5    34 1   
    12     6     7 ar  
    13     6    16 ar  
    14     6    20 1   
    15     7    21 1   
    16     8    19 1   
    17     8    25 1   
    18     8    26 1   
    19     8    27 1   
    20     9    10 ar  
    21    10    15 1   
    22    11    13 1   
    23    11    28 1   
    24    12    13 2   
    25    13    29 1   
    26    14    16 1   
    27    15    19 1   
    28    15    35 1   
    29    16    17 ar  
    30    17    18 ar  
    31    17    30 1   
    32    18    31 1   
    33    19    32 1   
    34    19    33 1   
    35    22    35 1   
    36    23    35 1   
    37    24    35 1   
@<TRIPOS>SUBSTRUCTURE
     1 KIE         1 TEMP              0 ****  ****    0 ROOT
