@<TRIPOS>MOLECULE
KIE
   35    37     1     0     0
SMALL
abcg2


@<TRIPOS>ATOM
      1 N1          93.6030    -7.2260    13.6560 nb         1 KIE      -0.250000
      2 C4          92.6630    -7.4720    14.5350 ca         1 KIE       0.295300
      3 C5          92.7910    -9.7570    13.8830 ca         1 KIE       0.285000
      4 C6          92.2000    -8.7710    14.6840 ca         1 KIE      -0.249200
      5 C13         94.7770    -2.8530    14.1800 ca         1 KIE       0.199000
      6 C15         92.7340    -4.0460    13.9180 ca         1 KIE      -0.022500
      7 C17         93.5930    -3.0460    13.4920 ca         1 KIE      -0.169000
      8 C21         96.9790    -9.4430    12.0320 c3         1 KIE      -0.118100
      9 N2          93.7480    -9.5130    12.9960 nb         1 KIE      -0.199000
     10 C3          94.1070    -8.2340    12.9130 ca         1 KIE       0.389900
     11 N7          91.2840    -9.4360    15.4590 na         1 KIE      -0.288600
     12 N8          92.2450   -10.9750    14.1670 nc         1 KIE      -0.655700
     13 C9          91.3600   -10.7320    15.1030 cd         1 KIE       0.440700
     14 S10         92.0090    -6.1570    15.5140 ss         1 KIE      -0.165300
     15 N11         95.0510    -7.8760    12.0090 nh         1 KIE      -0.773300
     16 C12         93.0680    -4.8330    15.0140 ca         1 KIE      -0.137000
     17 C16         94.2500    -4.6010    15.7060 ca         1 KIE      -0.022500
     18 C18         95.1180    -3.6030    15.2900 ca         1 KIE      -0.169000
     19 C19         95.7840    -8.8860    11.2710 c3         1 KIE       0.233800
     20 H1          91.8100    -4.2230    13.3840 ha         1 KIE       0.130000
     21 H2          93.3490    -2.4340    12.6330 ha         1 KIE       0.135500
     22 H3          96.2780    -6.4240    11.1940 h1         1 KIE       0.039033
     23 H4          94.7530    -5.7980    11.8120 h1         1 KIE       0.039033
     24 H5          96.0400    -6.2360    12.9330 h1         1 KIE       0.039033
     25 H6          97.5070   -10.1770    11.4220 hc         1 KIE       0.041033
     26 H7          97.6870    -8.6540    12.2900 hc         1 KIE       0.041033
     27 H8          96.6660    -9.9340    12.9530 hc         1 KIE       0.041033
     28 H9          90.6640    -9.0540    16.1570 hn         1 KIE       0.366000
     29 H11         90.7320   -11.4760    15.5680 h5         1 KIE       0.064800
     30 H12         94.5080    -5.2080    16.5640 ha         1 KIE       0.130000
     31 H13         96.0460    -3.4200    15.8140 ha         1 KIE       0.135500
     32 H14         95.1040    -9.6920    11.0010 h1         1 KIE       0.060200
     33 H15         96.1180    -8.4330    10.3370 h1         1 KIE       0.060200
     34 F14         95.6260    -1.9100    13.7530 f          1 KIE      -0.174000
     35 C20         95.5500    -6.5170    11.9970 c3         1 KIE       0.227100
@<TRIPOS>BOND
     1     1     2 ar  
     2     1    10 ar  
     3     2     4 ar  
     4     2    14 1   
     5     3     4 ar  
     6     3     9 ar  
     7     3    12 1   
     8     4    11 1   
     9     5     7 ar  
    10     5    18 ar  
    11     5    34 1   
    12     6     7 ar  
    13     6    16 ar  
    14     6    20 1   
    15     7    21 1   
    16     8    19 1   
    17     8    25 1   
    18     8    26 1   
    19     8    27 1   
    20     9    10 ar  
    21    10    15 1   
    22    11    13 1   
    23    11    28 1   
    24    12    13 2   
    25    13    29 1   
    26    14    16 1   
    27    15    19 1   
    28    15    35 1   
    29    16    17 ar  
    30    17    18 ar  
    31    17    30 1   
    32    18    31 1   
    33    19    32 1   
    34    19    33 1   
    35    22    35 1   
    36    23    35 1   
    37    24    35 1   
@<TRIPOS>SUBSTRUCTURE
     1 KIE         1 TEMP              0 ****  ****    0 ROOT
