@<TRIPOS>MOLECULE
KIF
   28    29     1     0     0
SMALL
bcc


@<TRIPOS>ATOM
      1 C4           0.4340    -1.0780    -1.7850 c6         1 KIF       0.140100
      2 O4           0.1790    -2.3690    -1.2830 oh         1 KIF      -0.582800
      3 C3          -0.8930    -0.3650    -2.0730 c6         1 KIF       0.091100
      4 O3          -0.6160     0.8250    -2.7680 oh         1 KIF      -0.594800
      5 C2          -1.6660    -0.0850    -0.7790 c6         1 KIF       0.074100
      6 O2          -2.8110     0.6940    -1.0230 oh         1 KIF      -0.601800
      7 C1          -0.7910     0.7050     0.1860 c5         1 KIF       0.297100
      8 N9          -1.3300     0.7820     1.5160 ns         1 KIF      -0.588900
      9 C8          -0.5540     0.2070     2.4420 c          1 KIF       0.628500
     10 O8          -0.7260     0.1140     3.6380 o          1 KIF      -0.566500
     11 C7           0.6470    -0.3420     1.6780 c          1 KIF       0.638500
     12 O7           1.5640    -0.9630     2.1690 o          1 KIF      -0.551500
     13 N            0.4500    -0.0010     0.3970 n          1 KIF      -0.480800
     14 C5           1.2840    -0.3680    -0.7260 c6         1 KIF       0.125700
     15 C6           2.0790     0.8200    -1.2510 c3         1 KIF       0.130400
     16 O6           2.9060     1.2660    -0.2050 oh         1 KIF      -0.584800
     17 H4           1.0140    -1.1210    -2.7160 h1         1 KIF       0.060700
     18 HO4         -0.2760    -2.8780    -1.9620 ho         1 KIF       0.408000
     19 H3          -1.5060    -1.0380    -2.6940 h1         1 KIF       0.031700
     20 HO3         -1.4380     1.3230    -2.8410 ho         1 KIF       0.425000
     21 H2          -1.9150    -1.0390    -0.3020 h1         1 KIF       0.071700
     22 HO2         -3.5210     0.1180    -1.3250 ho         1 KIF       0.417000
     23 H1          -0.6090     1.7120    -0.2060 h2         1 KIF       0.079700
     24 H9          -2.1950     1.2610     1.7160 hn         1 KIF       0.346500
     25 H5           2.0090    -1.0970    -0.3550 h1         1 KIF       0.110700
     26 H61          1.4170     1.6120    -1.6110 h1         1 KIF       0.033700
     27 H62          2.6600     0.4720    -2.1150 h1         1 KIF       0.033700
     28 HO6          3.2880     2.1080    -0.4650 ho         1 KIF       0.408000
@<TRIPOS>BOND
     1     1     2 1   
     2     1     3 1   
     3     1    14 1   
     4     1    17 1   
     5     2    18 1   
     6     3     4 1   
     7     3     5 1   
     8     3    19 1   
     9     4    20 1   
    10     5     6 1   
    11     5     7 1   
    12     5    21 1   
    13     6    22 1   
    14     7     8 1   
    15     7    13 1   
    16     7    23 1   
    17     8     9 1   
    18     8    24 1   
    19     9    10 2   
    20     9    11 1   
    21    11    12 2   
    22    11    13 1   
    23    13    14 1   
    24    14    15 1   
    25    14    25 1   
    26    15    16 1   
    27    15    26 1   
    28    15    27 1   
    29    16    28 1   
@<TRIPOS>SUBSTRUCTURE
     1 KIF         1 TEMP              0 ****  ****    0 ROOT
