@<TRIPOS>MOLECULE
KIF
   28    29     1     0     0
SMALL
No Charge or Current Charge


@<TRIPOS>ATOM
      1 C4           0.4540    -1.1080    -1.7630 c6         1 KIF       0.163300
      2 O4           0.1560    -2.4370    -1.2830 oh         1 KIF      -0.705000
      3 C3          -0.8840    -0.3490    -2.0890 c6         1 KIF       0.114300
      4 O3          -0.6550     0.8720    -2.8080 oh         1 KIF      -0.657000
      5 C2          -1.6990    -0.0350    -0.7920 c6         1 KIF       0.097300
      6 O2          -2.8960     0.7060    -1.1360 oh         1 KIF      -0.724000
      7 C1          -0.8220     0.7450     0.2420 c5         1 KIF       0.297100
      8 N9          -1.4250     0.8140     1.5830 ns         1 KIF      -0.521900
      9 C8          -0.6480     0.1700     2.5200 c          1 KIF       0.486000
     10 O8          -0.9210     0.0400     3.7080 o          1 KIF      -0.491000
     11 C7           0.6210    -0.3470     1.7610 c          1 KIF       0.496000
     12 O7           1.5520    -1.0020     2.2210 o          1 KIF      -0.476000
     13 N            0.4710     0.0640     0.4450 n          1 KIF      -0.413800
     14 C5           1.3240    -0.3610    -0.6950 c6         1 KIF       0.125700
     15 C6           2.1500     0.8230    -1.2910 c3         1 KIF       0.153600
     16 O6           3.0980     1.3550    -0.3500 oh         1 KIF      -0.647000
     17 H4           1.0430    -1.1860    -2.6910 h1         1 KIF       0.060700
     18 HO4         -0.1230    -2.9720    -2.0620 ho         1 KIF       0.507000
     19 H3          -1.4980    -1.0120    -2.7170 h1         1 KIF       0.031700
     20 HO3         -1.4900     1.3850    -2.6930 ho         1 KIF       0.464000
     21 H2          -1.9730    -0.9950    -0.3280 h1         1 KIF       0.071700
     22 HO2         -3.6130     0.0480    -1.3040 ho         1 KIF       0.516000
     23 H1          -0.5760     1.7470    -0.1330 h2         1 KIF       0.079700
     24 H9          -2.3240     1.2120     1.8290 hn         1 KIF       0.346500
     25 H5           2.0660    -1.0850    -0.3280 h1         1 KIF       0.110700
     26 H61          1.4630     1.6170    -1.6100 h1         1 KIF       0.033700
     27 H62          2.6760     0.4620    -2.1840 h1         1 KIF       0.033700
     28 HO6          3.5580     2.1020    -0.7930 ho         1 KIF       0.447000
@<TRIPOS>BOND
     1     1     2 1   
     2     1     3 1   
     3     1    14 1   
     4     1    17 1   
     5     2    18 1   
     6     3     4 1   
     7     3     5 1   
     8     3    19 1   
     9     4    20 1   
    10     5     6 1   
    11     5     7 1   
    12     5    21 1   
    13     6    22 1   
    14     7     8 1   
    15     7    13 1   
    16     7    23 1   
    17     8     9 1   
    18     8    24 1   
    19     9    10 2   
    20     9    11 1   
    21    11    12 2   
    22    11    13 1   
    23    13    14 1   
    24    14    15 1   
    25    14    25 1   
    26    15    16 1   
    27    15    26 1   
    28    15    27 1   
    29    16    28 1   
@<TRIPOS>SUBSTRUCTURE
     1 KIF         1 TEMP              0 ****  ****    0 ROOT
