@<TRIPOS>MOLECULE
KIG
   85    90     1     0     0
SMALL
No Charge or Current Charge


@<TRIPOS>ATOM
      1 N1          15.7420     7.0520    13.3170 n7         1 KIG      -0.917300
      2 C7          16.1510    10.7180    13.0740 c1         1 KIG      -0.024100
      3 C8          14.7010    10.5790    13.2840 c3         1 KIG       0.252900
      4 N2          19.7140     9.8390    13.0760 na         1 KIG      -0.275300
      5 C9          12.8670     8.9170    13.3770 c3         1 KIG       0.036800
      6 O1          15.9190     4.5550    13.2170 o          1 KIG      -0.554000
      7 C1          14.0660     5.6490    11.6520 c3         1 KIG      -0.351400
      8 O5          16.0320     9.0690    10.3060 os         1 KIG      -0.437000
      9 C5          18.7490    10.7640    12.6250 cc         1 KIG       0.518700
     10 C6          17.3520    10.7680    12.8870 cg         1 KIG      -0.210200
     11 N3          14.0810     9.3880    12.6160 n3         1 KIG      -0.747600
     12 C4          19.5640     8.6690    13.9630 c5         1 KIG       0.316300
     13 O4          11.6470    10.6890    14.4630 o          1 KIG      -0.729500
     14 C3          18.2620     6.7340    13.5820 c5         1 KIG       0.162300
     15 O3          10.7360     9.8260    12.7150 o          1 KIG      -0.729500
     16 C2          17.0710     7.1820    12.6750 c3         1 KIG       0.213800
     17 N4          17.4830     8.0390     8.7760 na         1 KIG      -0.304300
     18 C           14.9830     5.5340    10.4400 c3         1 KIG       0.172800
     19 O           13.9280     5.6630    14.3240 o          1 KIG      -0.554000
     20 C10         11.6450     9.8940    13.5320 c          1 KIG       0.688000
     21 C11         13.7620     9.5900    11.1620 c3         1 KIG       0.187800
     22 C12         14.9280     9.9890    10.2110 c5         1 KIG       0.121300
     23 C13         16.9000     9.3150     9.1780 c5         1 KIG       0.269300
     24 C14         16.9250     7.1260     7.8760 cc         1 KIG       0.392700
     25 C15         18.7990     6.3170     8.5580 ca         1 KIG      -0.107600
     26 C16         19.9530     5.5480     8.8140 ca         1 KIG       0.454900
     27 C17         20.6850     7.1900    10.2300 ca         1 KIG       0.190900
     28 C18         18.6750     7.5250     9.1960 ca         1 KIG       0.141500
     29 C19         16.0370    10.0940     8.1100 c5         1 KIG       0.132300
     30 C20         14.5990     9.9300     8.6930 c5         1 KIG       0.147300
     31 C21         20.6300    11.3400    11.7680 ca         1 KIG      -0.089600
     32 C22         21.6910    11.9490    11.0670 ca         1 KIG       0.440900
     33 C23         23.1030    10.3540    11.8990 ca         1 KIG       0.168900
     34 C24         20.9030    10.2260    12.5190 ca         1 KIG       0.142500
     35 C25         18.4470     8.6020    15.0780 c5         1 KIG       0.080300
     36 C26         18.1460     7.0790    15.1070 c5         1 KIG       0.121300
     37 N11         22.9370    11.4550    11.1270 nb         1 KIG      -0.307000
     38 N12         22.1450     9.7080    12.6060 nb         1 KIG      -0.211000
     39 N5          17.7100     6.0420     7.7240 nd         1 KIG      -0.563100
     40 N6          20.1680     4.3370     8.2340 nv         1 KIG      -1.071900
     41 N7          20.9030     5.9810     9.6580 nb         1 KIG      -0.285000
     42 N8          19.6130     7.9950    10.0400 nb         1 KIG      -0.204000
     43 N9          19.2820    11.6960    11.8180 nd         1 KIG      -0.549100
     44 O2          19.4500     7.4550    13.1760 os         1 KIG      -0.443000
     45 O6          16.3590    11.4910     8.0440 oh         1 KIG      -0.679000
     46 O7          13.7300    10.9840     8.2400 oh         1 KIG      -0.691000
     47 O8          18.8860     9.0590    16.3780 oh         1 KIG      -0.714000
     48 O9          19.1220     6.4150    15.9220 oh         1 KIG      -0.715000
     49 S           14.9070     5.6140    13.2380 s6         1 KIG       1.238100
     50 H1          15.0880     7.7140    12.8720 hn         1 KIG       0.497000
     51 H2          14.2060    11.5060    12.9640 h1         1 KIG       0.074200
     52 H3          14.5600    10.5120    14.3710 h1         1 KIG       0.074200
     53 H4          12.4760     8.0030    12.9140 h1         1 KIG       0.034700
     54 H5          13.1700     8.6310    14.3930 h1         1 KIG       0.034700
     55 H6          13.4790     6.5690    11.6160 h1         1 KIG       0.107200
     56 H7          13.3840     4.7930    11.6880 h1         1 KIG       0.107200
     57 H9          20.5280     8.6150    14.4870 h2         1 KIG       0.105700
     58 H10         18.4160     5.6570    13.4360 h1         1 KIG       0.091700
     59 H12         17.1380     6.6260    11.7320 h1         1 KIG       0.089700
     60 H13         17.2440     8.2260    12.4060 h1         1 KIG       0.089700
     61 H14         14.7590     5.1660     8.4410 hn         1 KIG       0.386500
     62 H15         13.6000     4.5010     9.3420 hn         1 KIG       0.386500
     63 H17         15.6550     4.6680    10.5390 h1         1 KIG       0.051700
     64 H18         15.5830     6.4450    10.3200 h1         1 KIG       0.051700
     65 H19         12.9890    10.3630    11.0610 h1         1 KIG       0.058200
     66 H20         13.3250     8.6660    10.7590 h1         1 KIG       0.058200
     67 H21         15.2770    10.9930    10.4870 h1         1 KIG       0.083700
     68 H22         17.7390     9.9490     9.4920 h2         1 KIG       0.106700
     69 H23         15.9700     7.2940     7.3920 h5         1 KIG       0.059800
     70 H24         21.4500     7.5510    10.9140 h5         1 KIG       0.051100
     71 H25         16.1140     9.6430     7.1110 h1         1 KIG       0.052700
     72 H26         14.1870     8.9470     8.4250 h1         1 KIG       0.034700
     73 H27         24.1100     9.9460    11.9570 h5         1 KIG       0.040100
     74 H28         17.5290     9.1200    14.7890 h1         1 KIG       0.077700
     75 H29         17.1370     6.8810    15.4950 h1         1 KIG       0.065700
     76 H30         22.2360    13.2640     9.5990 hn         1 KIG       0.505000
     77 H31         20.5670    13.3130    10.0580 hn         1 KIG       0.505000
     78 H32         20.8430     3.7130     8.6660 hn         1 KIG       0.502500
     79 H33         19.3760     3.9040     7.7650 hn         1 KIG       0.502500
     80 H34         15.4690    11.9210     7.9830 ho         1 KIG       0.501000
     81 H35         12.8150    10.6180     8.2020 ho         1 KIG       0.514000
     82 H36         18.7910    10.0420    16.4020 ho         1 KIG       0.515000
     83 H37         19.3910     7.1270    16.5560 ho         1 KIG       0.516000
     84 N           14.1510     5.3600     9.2440 n8         1 KIG      -0.984200
     85 N10         21.5220    13.0540    10.2920 nv         1 KIG      -1.074900
@<TRIPOS>BOND
     1     1    16 1   
     2     1    49 1   
     3     1    50 1   
     4     2     3 1   
     5     2    10 3   
     6     3    11 1   
     7     3    51 1   
     8     3    52 1   
     9     4     9 1   
    10     4    12 1   
    11     4    34 1   
    12     5    11 1   
    13     5    20 1   
    14     5    53 1   
    15     5    54 1   
    16     6    49 2   
    17     7    18 1   
    18     7    49 1   
    19     7    55 1   
    20     7    56 1   
    21     8    22 1   
    22     8    23 1   
    23     9    10 1   
    24     9    43 2   
    25    11    21 1   
    26    12    35 1   
    27    12    44 1   
    28    12    57 1   
    29    13    20 1   
    30    14    16 1   
    31    14    36 1   
    32    14    44 1   
    33    14    58 1   
    34    15    20 1   
    35    16    59 1   
    36    16    60 1   
    37    17    23 1   
    38    17    24 1   
    39    17    28 1   
    40    18    63 1   
    41    18    64 1   
    42    18    84 1   
    43    19    49 2   
    44    21    22 1   
    45    21    65 1   
    46    21    66 1   
    47    22    30 1   
    48    22    67 1   
    49    23    29 1   
    50    23    68 1   
    51    24    39 2   
    52    24    69 1   
    53    25    26 ar  
    54    25    28 ar  
    55    25    39 1   
    56    26    40 1   
    57    26    41 ar  
    58    27    41 ar  
    59    27    42 ar  
    60    27    70 1   
    61    28    42 ar  
    62    29    30 1   
    63    29    45 1   
    64    29    71 1   
    65    30    46 1   
    66    30    72 1   
    67    31    32 ar  
    68    31    34 ar  
    69    31    43 1   
    70    32    37 ar  
    71    32    85 1   
    72    33    37 ar  
    73    33    38 ar  
    74    33    73 1   
    75    34    38 ar  
    76    35    36 1   
    77    35    47 1   
    78    35    74 1   
    79    36    48 1   
    80    36    75 1   
    81    40    78 1   
    82    40    79 1   
    83    45    80 1   
    84    46    81 1   
    85    47    82 1   
    86    48    83 1   
    87    61    84 1   
    88    62    84 1   
    89    76    85 1   
    90    77    85 1   
@<TRIPOS>SUBSTRUCTURE
     1 KIG         1 TEMP              0 ****  ****    0 ROOT
