@<TRIPOS>MOLECULE
KIG
   85    90     1     0     0
SMALL
abcg2


@<TRIPOS>ATOM
      1 N1          16.1800     6.0140    13.5720 n7         1 KIG      -0.917300
      2 C7          16.1770    10.9940    12.8730 c1         1 KIG      -0.024100
      3 C8          14.7420    10.7180    12.9550 c3         1 KIG       0.252900
      4 N2          19.7020    10.5310    13.2670 na         1 KIG      -0.275300
      5 C9          13.4270     8.6510    12.9980 c3         1 KIG       0.036800
      6 O1          17.0170     4.2800    12.0150 o          1 KIG      -0.554000
      7 C1          14.4740     4.9010    11.6930 c3         1 KIG      -0.351400
      8 O5          16.3050     8.9940    10.1000 os         1 KIG      -0.437000
      9 C5          18.7550    11.3900    12.7070 cc         1 KIG       0.518700
     10 C6          17.3650    11.1820    12.8070 cg         1 KIG      -0.210200
     11 N3          14.3860     9.4750    12.2800 n3         1 KIG      -0.747600
     12 C4          19.5120     9.2730    13.9490 c5         1 KIG       0.316300
     13 O4          11.7340    10.3630    12.8390 o          1 KIG      -0.729500
     14 C3          18.2610     7.3050    13.7360 c5         1 KIG       0.162300
     15 O3          11.1750     8.3560    13.6800 o          1 KIG      -0.729500
     16 C2          16.9590     7.1020    12.9740 c3         1 KIG       0.213800
     17 N4          17.1630     7.6030     8.4220 na         1 KIG      -0.304300
     18 C           14.7880     5.8460    10.5410 c3         1 KIG       0.172800
     19 O           15.3790     3.6920    13.8060 o          1 KIG      -0.554000
     20 C10         11.9830     9.1810    13.1800 c          1 KIG       0.688000
     21 C11         14.0930     9.6260    10.8620 c3         1 KIG       0.187800
     22 C12         15.2920    10.0090    10.0230 c5         1 KIG       0.121300
     23 C13         17.0650     8.9710     8.8960 c5         1 KIG       0.269300
     24 C14         16.3200     6.8980     7.5890 cc         1 KIG       0.392700
     25 C15         17.7720     5.4870     8.2650 ca         1 KIG      -0.107600
     26 C16         18.5800     4.3800     8.5890 ca         1 KIG       0.454900
     27 C17         19.8090     5.7950     9.9460 ca         1 KIG       0.190900
     28 C18         18.1010     6.6970     8.8710 ca         1 KIG       0.141500
     29 C19         16.3950     9.9580     7.9170 c5         1 KIG       0.132300
     30 C20         14.9980    10.1040     8.5230 c5         1 KIG       0.147300
     31 C21         20.6720    12.2130    12.2160 ca         1 KIG      -0.089600
     32 C22         21.7910    12.9430    11.7610 ca         1 KIG       0.440900
     33 C23         23.1200    11.3370    12.7610 ca         1 KIG       0.168900
     34 C24         20.9340    11.0530    12.9420 ca         1 KIG       0.142500
     35 C25         18.5200     9.2730    15.1110 c5         1 KIG       0.080300
     36 C26         18.1180     7.7880    15.1840 c5         1 KIG       0.121300
     37 N11         23.0160    12.4690    12.0560 nb         1 KIG      -0.307000
     38 N12         22.1420    10.5700    13.2420 nb         1 KIG      -0.211000
     39 N5          16.6540     5.6380     7.4620 nd         1 KIG      -0.563100
     40 N6          18.3740     3.1540     8.0830 nv         1 KIG      -1.071900
     41 N7          19.6050     4.5730     9.4420 nb         1 KIG      -0.285000
     42 N8          19.1130     6.9070     9.7180 nb         1 KIG      -0.204000
     43 N9          19.3180    12.4070    12.0780 nd         1 KIG      -0.549100
     44 O2          19.0200     8.3130    13.0320 os         1 KIG      -0.443000
     45 O6          17.0410    11.2200     7.9700 oh         1 KIG      -0.679000
     46 O7          14.3680    11.3000     8.1130 oh         1 KIG      -0.691000
     47 O8          19.1570     9.7370    16.2880 oh         1 KIG      -0.714000
     48 O9          19.0270     7.0680    16.0070 oh         1 KIG      -0.715000
     49 S           15.8490     4.6190    12.8000 s6         1 KIG       1.238100
     50 H1          15.4590     6.2840    14.2290 hn         1 KIG       0.497000
     51 H2          14.1840    11.5790    12.5650 h1         1 KIG       0.074200
     52 H3          14.4750    10.6370    14.0110 h1         1 KIG       0.074200
     53 H4          13.3600     7.6870    12.4910 h1         1 KIG       0.034700
     54 H5          13.8260     8.4440    13.9950 h1         1 KIG       0.034700
     55 H6          13.6630     5.2780    12.3160 h1         1 KIG       0.107200
     56 H7          14.2010     3.9080    11.3280 h1         1 KIG       0.107200
     57 H9          20.5010     8.9920    14.3220 h2         1 KIG       0.105700
     58 H10         18.8270     6.3700    13.7360 h1         1 KIG       0.091700
     59 H12         17.2070     6.8540    11.9450 h1         1 KIG       0.089700
     60 H13         16.3600     8.0120    12.9560 h1         1 KIG       0.089700
     61 H14         13.7450     6.7680     9.0470 hn         1 KIG       0.386500
     62 H15         13.3350     5.2100     9.2460 hn         1 KIG       0.386500
     63 H17         15.6150     5.4320     9.9590 h1         1 KIG       0.051700
     64 H18         15.1100     6.8130    10.9230 h1         1 KIG       0.051700
     65 H19         13.3150    10.3850    10.6880 h1         1 KIG       0.058200
     66 H20         13.7060     8.6740    10.4980 h1         1 KIG       0.058200
     67 H21         15.7080    10.9650    10.3550 h1         1 KIG       0.083700
     68 H22         18.0870     9.2920     9.1040 h2         1 KIG       0.106700
     69 H23         15.4800     7.3660     7.1010 h5         1 KIG       0.059800
     70 H24         20.6470     5.8870    10.6300 h5         1 KIG       0.051100
     71 H25         16.3750     9.5780     6.8940 h1         1 KIG       0.052700
     72 H26         14.4010     9.2350     8.2270 h1         1 KIG       0.034700
     73 H27         24.1320    11.0040    12.9650 h5         1 KIG       0.040100
     74 H28         17.6500     9.8800    14.8760 h1         1 KIG       0.077700
     75 H29         17.0970     7.6710    15.5540 h1         1 KIG       0.065700
     76 H30         22.5080    14.5500    10.7320 hn         1 KIG       0.505000
     77 H31         20.7770    14.4400    10.8010 hn         1 KIG       0.505000
     78 H32         18.9330     2.3820     8.4050 hn         1 KIG       0.502500
     79 H33         17.5730     2.9680     7.5040 hn         1 KIG       0.502500
     80 H34         17.9030    11.1380     7.5420 ho         1 KIG       0.501000
     81 H35         13.4200    11.2130     8.2710 ho         1 KIG       0.514000
     82 H36         18.5040    10.1770    16.8460 ho         1 KIG       0.515000
     83 H37         19.2810     7.6660    16.7270 ho         1 KIG       0.516000
     84 N           13.5710     6.0580     9.7510 n8         1 KIG      -0.984200
     85 N10         21.6800    14.0790    11.0580 nv         1 KIG      -1.074900
@<TRIPOS>BOND
     1     1    16 1   
     2     1    49 1   
     3     1    50 1   
     4     2     3 1   
     5     2    10 3   
     6     3    11 1   
     7     3    51 1   
     8     3    52 1   
     9     4     9 1   
    10     4    12 1   
    11     4    34 1   
    12     5    11 1   
    13     5    20 1   
    14     5    53 1   
    15     5    54 1   
    16     6    49 2   
    17     7    18 1   
    18     7    49 1   
    19     7    55 1   
    20     7    56 1   
    21     8    22 1   
    22     8    23 1   
    23     9    10 1   
    24     9    43 2   
    25    11    21 1   
    26    12    35 1   
    27    12    44 1   
    28    12    57 1   
    29    13    20 1   
    30    14    16 1   
    31    14    36 1   
    32    14    44 1   
    33    14    58 1   
    34    15    20 1   
    35    16    59 1   
    36    16    60 1   
    37    17    23 1   
    38    17    24 1   
    39    17    28 1   
    40    18    63 1   
    41    18    64 1   
    42    18    84 1   
    43    19    49 2   
    44    21    22 1   
    45    21    65 1   
    46    21    66 1   
    47    22    30 1   
    48    22    67 1   
    49    23    29 1   
    50    23    68 1   
    51    24    39 2   
    52    24    69 1   
    53    25    26 ar  
    54    25    28 ar  
    55    25    39 1   
    56    26    40 1   
    57    26    41 ar  
    58    27    41 ar  
    59    27    42 ar  
    60    27    70 1   
    61    28    42 ar  
    62    29    30 1   
    63    29    45 1   
    64    29    71 1   
    65    30    46 1   
    66    30    72 1   
    67    31    32 ar  
    68    31    34 ar  
    69    31    43 1   
    70    32    37 ar  
    71    32    85 1   
    72    33    37 ar  
    73    33    38 ar  
    74    33    73 1   
    75    34    38 ar  
    76    35    36 1   
    77    35    47 1   
    78    35    74 1   
    79    36    48 1   
    80    36    75 1   
    81    40    78 1   
    82    40    79 1   
    83    45    80 1   
    84    46    81 1   
    85    47    82 1   
    86    48    83 1   
    87    61    84 1   
    88    62    84 1   
    89    76    85 1   
    90    77    85 1   
@<TRIPOS>SUBSTRUCTURE
     1 KIG         1 TEMP              0 ****  ****    0 ROOT
