@<TRIPOS>MOLECULE
KIH
   57    60     1     0     0
SMALL
abcg2


@<TRIPOS>ATOM
      1 N1          14.4910   -10.8810    28.9950 na         1 KIH       0.068900
      2 N3          16.7760   -10.3560    29.3700 nc         1 KIH      -0.693000
      3 C4          15.6620    -7.4690    28.5750 ca         1 KIH       0.013200
      4 C5          16.6310    -7.1010    29.5220 ca         1 KIH      -0.150000
      5 C6          17.2740    -5.8770    29.4560 ca         1 KIH       0.109100
      6 C7          18.6320    -6.3460    31.3380 c3         1 KIH       0.145900
      7 C8          14.9770    -8.7570    28.6760 cd         1 KIH      -0.244800
      8 C13         13.8360   -14.8490    30.7790 ca         1 KIH      -0.105300
      9 C15         13.5820   -14.5480    33.1620 ca         1 KIH      -0.098500
     10 C17         14.7180   -16.5040    32.3040 ca         1 KIH      -0.098500
     11 C20         16.9600   -11.6320    29.6410 cd         1 KIH       0.436300
     12 C21         18.3420   -12.0690    30.0170 c3         1 KIH      -0.152400
     13 C22         15.5320    -9.9830    29.0410 cc         1 KIH       0.437500
     14 O4          16.8950   -15.9650    34.5740 o          1 KIH      -0.541500
     15 S           15.7610   -15.9050    35.4400 s6         1 KIH       1.585600
     16 O3          15.6750   -16.5930    36.6860 o          1 KIH      -0.541500
     17 C16         14.2520   -15.7410    33.3560 ca         1 KIH       0.109100
     18 C14         13.3740   -14.1090    31.8620 ca         1 KIH      -0.083000
     19 C18         14.5060   -16.0460    31.0140 ca         1 KIH      -0.083000
     20 C12         13.5940   -14.4040    29.3560 c3         1 KIH       0.281100
     21 C11         14.6520   -12.2050    29.2650 cc         1 KIH       0.402000
     22 C19         15.9340   -12.5950    29.6000 cd         1 KIH      -0.334000
     23 N           13.3270   -10.3220    28.6410 nc         1 KIH      -0.629100
     24 C9          13.6140    -9.0440    28.4440 cd         1 KIH       0.426600
     25 C3          15.3670    -6.5730    27.5580 ca         1 KIH      -0.110000
     26 C2          16.0020    -5.3350    27.4860 ca         1 KIH      -0.173000
     27 O1          18.2080    -5.4530    30.3310 os         1 KIH      -0.326100
     28 C1          16.9510    -4.9710    28.4240 ca         1 KIH       0.106100
     29 O           17.6140    -3.7980    28.4410 os         1 KIH      -0.322100
     30 C           17.3370    -2.8640    27.4210 c3         1 KIH       0.146900
     31 H1          16.8630    -7.7940    30.3180 ha         1 KIH       0.130000
     32 H2          19.4150    -5.8360    31.8940 h1         1 KIH       0.038700
     33 H3          17.8230    -6.6020    32.0280 h1         1 KIH       0.038700
     34 H4          19.0420    -7.2700    30.9210 h1         1 KIH       0.038700
     35 H5          11.5570    -8.5120    28.2900 hc         1 KIH       0.053033
     36 H6          12.6430    -7.1410    28.5540 hc         1 KIH       0.053033
     37 H7          12.5520    -7.9000    26.9740 hc         1 KIH       0.053033
     38 H8          13.2150   -13.9730    34.0020 ha         1 KIH       0.141000
     39 H9          15.2350   -17.4390    32.4810 ha         1 KIH       0.141000
     40 H10         19.0350   -11.2310    29.9880 hc         1 KIH       0.057367
     41 H11         18.3510   -12.4960    31.0210 hc         1 KIH       0.057367
     42 H12         18.7020   -12.8440    29.3390 hc         1 KIH       0.057367
     43 H15         12.8500   -13.1760    31.7010 ha         1 KIH       0.129000
     44 H16         14.8760   -16.6290    30.1800 ha         1 KIH       0.129000
     45 H17         12.6280   -14.7810    29.0190 h1         1 KIH       0.064200
     46 H18         14.3450   -14.8540    28.7010 h1         1 KIH       0.064200
     47 H19         12.7020   -12.5310    28.9030 hn         1 KIH       0.533000
     48 H20         16.1510   -13.6270    29.8360 ha         1 KIH       0.139000
     49 H21         14.6500    -6.8310    26.7900 ha         1 KIH       0.110000
     50 H22         15.7420    -4.6670    26.6750 ha         1 KIH       0.115000
     51 H23         17.9720    -2.0020    27.6090 h1         1 KIH       0.037033
     52 H24         17.5670    -3.2600    26.4280 h1         1 KIH       0.037033
     53 H25         16.2920    -2.5390    27.4340 h1         1 KIH       0.037033
     54 F1          15.5240   -14.3680    35.7440 f          1 KIH      -0.276900
     55 C10         12.5350    -8.0990    28.0470 c3         1 KIH      -0.111400
     56 N2          13.5650   -12.9760    29.1770 nu         1 KIH      -0.969200
     57 O2          14.4160   -16.2150    34.6670 os         1 KIH      -0.481800
@<TRIPOS>BOND
     1     1    13 1   
     2     1    21 1   
     3     1    23 1   
     4     2    11 2   
     5     2    13 1   
     6     3     4 ar  
     7     3     7 1   
     8     3    25 ar  
     9     4     5 ar  
    10     4    31 1   
    11     5    27 1   
    12     5    28 ar  
    13     6    27 1   
    14     6    32 1   
    15     6    33 1   
    16     6    34 1   
    17     7    13 2   
    18     7    24 1   
    19     8    18 ar  
    20     8    19 ar  
    21     8    20 1   
    22     9    17 ar  
    23     9    18 ar  
    24     9    38 1   
    25    10    17 ar  
    26    10    19 ar  
    27    10    39 1   
    28    11    12 1   
    29    11    22 1   
    30    12    40 1   
    31    12    41 1   
    32    12    42 1   
    33    14    15 2   
    34    15    16 2   
    35    15    54 1   
    36    15    57 1   
    37    17    57 1   
    38    18    43 1   
    39    19    44 1   
    40    20    45 1   
    41    20    46 1   
    42    20    56 1   
    43    21    22 2   
    44    21    56 1   
    45    22    48 1   
    46    23    24 2   
    47    24    55 1   
    48    25    26 ar  
    49    25    49 1   
    50    26    28 ar  
    51    26    50 1   
    52    28    29 1   
    53    29    30 1   
    54    30    51 1   
    55    30    52 1   
    56    30    53 1   
    57    35    55 1   
    58    36    55 1   
    59    37    55 1   
    60    47    56 1   
@<TRIPOS>SUBSTRUCTURE
     1 KIH         1 TEMP              0 ****  ****    0 ROOT
