@<TRIPOS>MOLECULE
KIH
   57    60     1     0     0
SMALL
No Charge or Current Charge


@<TRIPOS>ATOM
      1 N1          14.4510   -11.1710    28.6610 na         1 KIH       0.068900
      2 N3          16.8390   -10.6210    28.9650 nc         1 KIH      -0.693000
      3 C4          15.6490    -7.7520    28.7070 ca         1 KIH       0.013200
      4 C5          16.7880    -7.5760    29.5230 ca         1 KIH      -0.150000
      5 C6          17.4330    -6.3220    29.6220 ca         1 KIH       0.109100
      6 C7          19.1440    -7.2010    31.1850 c3         1 KIH       0.145900
      7 C8          14.9700    -9.0700    28.5980 cd         1 KIH      -0.244800
      8 C13         13.8500   -14.8940    30.6590 ca         1 KIH      -0.105300
      9 C15         13.2190   -14.3380    32.9540 ca         1 KIH      -0.098500
     10 C17         15.2230   -15.6530    32.5320 ca         1 KIH      -0.098500
     11 C20         17.0460   -11.9260    29.0680 cd         1 KIH       0.436300
     12 C21         18.4740   -12.3370    29.2800 c3         1 KIH      -0.152400
     13 C22         15.5170   -10.3170    28.7840 cc         1 KIH       0.437500
     14 O4          16.5030   -13.4330    34.6660 o          1 KIH      -0.541500
     15 S           15.3770   -13.8470    35.5200 s6         1 KIH       1.585600
     16 O3          15.6160   -14.2190    36.9250 o          1 KIH      -0.541500
     17 C16         14.3530   -15.0160    33.4320 ca         1 KIH       0.109100
     18 C14         12.9700   -14.2740    31.5710 ca         1 KIH      -0.083000
     19 C18         14.9750   -15.5890    31.1490 ca         1 KIH      -0.083000
     20 C12         13.5810   -14.8210    29.1580 c3         1 KIH       0.281100
     21 C11         14.6690   -12.5490    28.7790 cc         1 KIH       0.402000
     22 C19         15.9910   -12.9000    28.9790 cd         1 KIH      -0.334000
     23 N           13.2120   -10.5950    28.4640 nc         1 KIH      -0.629100
     24 C9          13.5570    -9.3120    28.4470 cd         1 KIH       0.426600
     25 C3          15.1700    -6.6390    27.9850 ca         1 KIH      -0.110000
     26 C2          15.7990    -5.3870    28.0740 ca         1 KIH      -0.173000
     27 O1          18.5480    -6.1350    30.4240 os         1 KIH      -0.326100
     28 C1          16.9340    -5.2180    28.8940 ca         1 KIH       0.106100
     29 O           17.5810    -3.9970    29.0050 os         1 KIH      -0.322100
     30 C           17.1410    -2.8230    28.3010 c3         1 KIH       0.146900
     31 H1          17.1510    -8.4120    30.1080 ha         1 KIH       0.130000
     32 H2          20.0200    -6.8320    31.7340 h1         1 KIH       0.038700
     33 H3          18.4320    -7.6050    31.9160 h1         1 KIH       0.038700
     34 H4          19.4740    -8.0140    30.5260 h1         1 KIH       0.038700
     35 H5          11.4940    -8.7080    28.6750 hc         1 KIH       0.053033
     36 H6          12.6610    -7.4200    28.9740 hc         1 KIH       0.053033
     37 H7          12.3270    -7.9550    27.3100 hc         1 KIH       0.053033
     38 H8          12.5300   -13.8650    33.6500 ha         1 KIH       0.141000
     39 H9          16.0890   -16.1940    32.9040 ha         1 KIH       0.141000
     40 H10         18.9530   -11.7240    30.0530 hc         1 KIH       0.057367
     41 H11         18.5450   -13.3840    29.5980 hc         1 KIH       0.057367
     42 H12         19.0510   -12.2270    28.3550 hc         1 KIH       0.057367
     43 H15         12.0940   -13.7420    31.2070 ha         1 KIH       0.129000
     44 H16         15.6580   -16.0820    30.4610 ha         1 KIH       0.129000
     45 H17         12.5970   -15.2670    28.9520 h1         1 KIH       0.064200
     46 H18         14.3260   -15.4180    28.6140 h1         1 KIH       0.064200
     47 H19         12.7150   -12.9400    28.5790 hn         1 KIH       0.533000
     48 H20         16.2490   -13.9460    29.0670 ha         1 KIH       0.139000
     49 H21         14.3250    -6.7410    27.3120 ha         1 KIH       0.110000
     50 H22         15.3960    -4.5640    27.4910 ha         1 KIH       0.115000
     51 H23         17.7940    -1.9730    28.5360 h1         1 KIH       0.037033
     52 H24         17.1710    -2.9850    27.2160 h1         1 KIH       0.037033
     53 H25         16.1170    -2.5560    28.5900 h1         1 KIH       0.037033
     54 F1          14.3270   -12.5840    35.5420 f          1 KIH      -0.276900
     55 C10         12.4530    -8.2930    28.3450 c3         1 KIH      -0.111400
     56 N2          13.6100   -13.4260    28.6890 nu         1 KIH      -0.969200
     57 O2          14.5900   -15.0990    34.7800 os         1 KIH      -0.481800
@<TRIPOS>BOND
     1     1    13 1   
     2     1    21 1   
     3     1    23 1   
     4     2    11 2   
     5     2    13 1   
     6     3     4 ar  
     7     3     7 1   
     8     3    25 ar  
     9     4     5 ar  
    10     4    31 1   
    11     5    27 1   
    12     5    28 ar  
    13     6    27 1   
    14     6    32 1   
    15     6    33 1   
    16     6    34 1   
    17     7    13 2   
    18     7    24 1   
    19     8    18 ar  
    20     8    19 ar  
    21     8    20 1   
    22     9    17 ar  
    23     9    18 ar  
    24     9    38 1   
    25    10    17 ar  
    26    10    19 ar  
    27    10    39 1   
    28    11    12 1   
    29    11    22 1   
    30    12    40 1   
    31    12    41 1   
    32    12    42 1   
    33    14    15 2   
    34    15    16 2   
    35    15    54 1   
    36    15    57 1   
    37    17    57 1   
    38    18    43 1   
    39    19    44 1   
    40    20    45 1   
    41    20    46 1   
    42    20    56 1   
    43    21    22 2   
    44    21    56 1   
    45    22    48 1   
    46    23    24 2   
    47    24    55 1   
    48    25    26 ar  
    49    25    49 1   
    50    26    28 ar  
    51    26    50 1   
    52    28    29 1   
    53    29    30 1   
    54    30    51 1   
    55    30    52 1   
    56    30    53 1   
    57    35    55 1   
    58    36    55 1   
    59    37    55 1   
    60    47    56 1   
@<TRIPOS>SUBSTRUCTURE
     1 KIH         1 TEMP              0 ****  ****    0 ROOT
