@<TRIPOS>MOLECULE
KII
   44    47     1     0     0
SMALL
abcg2


@<TRIPOS>ATOM
      1 N1          95.6490   -10.9550     9.4180 nc         1 KII      -0.524800
      2 C2          93.7760   -11.3520    10.6130 cd         1 KII      -0.188000
      3 C3          94.5990   -11.7460     9.5420 cd         1 KII       0.207000
      4 C4          94.4210   -10.2500    11.1330 cc         1 KII      -0.008400
      5 N5          95.5310   -10.0500    10.3870 na         1 KII       0.101800
      6 C6          94.3910   -12.8820     8.6400 ca         1 KII       0.325000
      7 N7          93.2860   -13.5970     8.8390 nb         1 KII      -0.662000
      8 N8          94.1420    -9.4080    12.1890 ns         1 KII      -0.392100
      9 C9          96.5190    -9.0090    10.5460 c3         1 KII       0.067900
     10 C10         93.0540   -14.6390     8.0530 ca         1 KII       0.338900
     11 C11         95.3080   -13.1940     7.6350 ca         1 KII      -0.137000
     12 C12         93.9030   -15.0290     7.0290 ca         1 KII      -0.166000
     13 C13         95.0550   -14.2840     6.8210 ca         1 KII      -0.080000
     14 C14         93.0250    -8.5110    14.0850 cc         1 KII       0.210500
     15 C15         92.0100    -8.2570    15.0340 cc         1 KII      -0.097000
     16 C16         92.5620    -7.2840    15.8400 cd         1 KII      -0.169000
     17 N17         93.7900    -7.0180    15.3630 na         1 KII       0.157800
     18 N18         94.0860    -7.7510    14.3120 nd         1 KII      -0.532800
     19 C19         94.7420    -6.0660    15.8950 c3         1 KII       0.065900
     20 C20         90.6650    -8.8140    15.1860 ca         1 KII       0.036000
     21 C21         93.0560    -9.5150    13.0040 c          1 KII       0.544600
     22 O22         92.1960   -10.3630    12.8720 o          1 KII      -0.546100
     23 C23         90.2080    -9.2240    16.4360 ca         1 KII      -0.142500
     24 C24         88.9130    -9.7060    16.5580 ca         1 KII       0.333400
     25 N25         88.0660    -9.8010    15.5410 nb         1 KII      -0.662000
     26 C26         88.5010    -9.4050    14.3500 ca         1 KII       0.333400
     27 C27         89.7740    -8.9100    14.1200 ca         1 KII      -0.142500
     28 H1          92.8640   -11.8120    10.9430 ha         1 KII       0.183000
     29 H2          94.8040    -8.6740    12.4060 hn         1 KII       0.341500
     30 H3          97.2550    -9.1270     9.7580 h1         1 KII       0.056367
     31 H4          96.0660    -8.0220    10.4570 h1         1 KII       0.056367
     32 H5          97.0220    -9.0880    11.5090 h1         1 KII       0.056367
     33 H6          92.1430   -15.1950     8.2480 h4         1 KII       0.018100
     34 H7          96.1970   -12.5940     7.5020 ha         1 KII       0.137000
     35 H8          93.6660   -15.8880     6.4170 ha         1 KII       0.121000
     36 H9          95.7490   -14.5490     6.0340 ha         1 KII       0.117000
     37 H10         92.1550    -6.7610    16.6920 h4         1 KII       0.165000
     38 H11         95.6030    -6.0380    15.2360 h1         1 KII       0.064033
     39 H12         94.2940    -5.0760    15.9440 h1         1 KII       0.064033
     40 H13         95.0600    -6.3660    16.8920 h1         1 KII       0.064033
     41 H14         90.8520    -9.1830    17.3050 ha         1 KII       0.124500
     42 H15         88.5500   -10.0320    17.5260 h4         1 KII       0.019100
     43 H16         87.7980    -9.4810    13.5270 h4         1 KII       0.019100
     44 H17         90.0540    -8.5910    13.1260 ha         1 KII       0.124500
@<TRIPOS>BOND
     1     1     3 2   
     2     1     5 1   
     3     2     3 1   
     4     2     4 2   
     5     2    28 1   
     6     3     6 1   
     7     4     5 1   
     8     4     8 1   
     9     5     9 1   
    10     6     7 ar  
    11     6    11 ar  
    12     7    10 ar  
    13     8    21 1   
    14     8    29 1   
    15     9    30 1   
    16     9    31 1   
    17     9    32 1   
    18    10    12 ar  
    19    10    33 1   
    20    11    13 ar  
    21    11    34 1   
    22    12    13 ar  
    23    12    35 1   
    24    13    36 1   
    25    14    15 1   
    26    14    18 2   
    27    14    21 1   
    28    15    16 2   
    29    15    20 1   
    30    16    17 1   
    31    16    37 1   
    32    17    18 1   
    33    17    19 1   
    34    19    38 1   
    35    19    39 1   
    36    19    40 1   
    37    20    23 ar  
    38    20    27 ar  
    39    21    22 2   
    40    23    24 ar  
    41    23    41 1   
    42    24    25 ar  
    43    24    42 1   
    44    25    26 ar  
    45    26    27 ar  
    46    26    43 1   
    47    27    44 1   
@<TRIPOS>SUBSTRUCTURE
     1 KII         1 TEMP              0 ****  ****    0 ROOT
