@<TRIPOS>MOLECULE
KII
   44    47     1     0     0
SMALL
No Charge or Current Charge


@<TRIPOS>ATOM
      1 N1          95.7890   -10.9560     9.2780 nc         1 KII      -0.524800
      2 C2          93.9520   -11.2930    10.5700 cd         1 KII      -0.188000
      3 C3          94.7150   -11.7190     9.4560 cd         1 KII       0.207000
      4 C4          94.5810   -10.2120    11.1130 cc         1 KII      -0.008400
      5 N5          95.6990   -10.0320    10.3010 na         1 KII       0.101800
      6 C6          94.3880   -12.8730     8.5670 ca         1 KII       0.325000
      7 N7          93.2590   -13.5820     8.8470 nb         1 KII      -0.662000
      8 N8          94.2110    -9.4490    12.2190 ns         1 KII      -0.392100
      9 C9          96.7280    -8.9910    10.4480 c3         1 KII       0.067900
     10 C10         92.9420   -14.6330     8.0570 ca         1 KII       0.338900
     11 C11         95.2220   -13.2140     7.4770 ca         1 KII      -0.137000
     12 C12         93.7240   -15.0260     6.9590 ca         1 KII      -0.166000
     13 C13         94.8890   -14.3050     6.6580 ca         1 KII      -0.080000
     14 C14         93.1100    -8.5370    14.1490 cc         1 KII       0.210500
     15 C15         92.0890    -8.3860    15.1290 cc         1 KII      -0.097000
     16 C16         92.4960    -7.3830    15.9610 cd         1 KII      -0.169000
     17 N17         93.7370    -6.9830    15.4690 na         1 KII       0.157800
     18 N18         94.1180    -7.6870    14.3410 nd         1 KII      -0.532800
     19 C19         94.5890    -5.9180    16.0130 c3         1 KII       0.065900
     20 C20         90.7140    -8.8960    15.2580 ca         1 KII       0.036000
     21 C21         93.1190    -9.5870    13.0660 c          1 KII       0.544600
     22 O22         92.3010   -10.4900    12.9380 o          1 KII      -0.546100
     23 C23         90.1050    -9.0010    16.5250 ca         1 KII      -0.142500
     24 C24         88.7860    -9.4710    16.6290 ca         1 KII       0.333400
     25 N25         88.0400    -9.8190    15.5570 nb         1 KII      -0.662000
     26 C26         88.6080    -9.6950    14.3370 ca         1 KII       0.333400
     27 C27         89.9220    -9.2370    14.1450 ca         1 KII      -0.142500
     28 H1          93.0340   -11.7550    10.9120 ha         1 KII       0.183000
     29 H2          94.8030    -8.6680    12.4810 hn         1 KII       0.341500
     30 H3          97.4920    -9.1020     9.6690 h1         1 KII       0.056367
     31 H4          96.2620    -8.0020    10.3580 h1         1 KII       0.056367
     32 H5          97.2020    -9.0820    11.4330 h1         1 KII       0.056367
     33 H6          92.0320   -15.1750     8.3120 h4         1 KII       0.018100
     34 H7          96.1190   -12.6370     7.2680 ha         1 KII       0.137000
     35 H8          93.4250   -15.8780     6.3550 ha         1 KII       0.121000
     36 H9          95.5170   -14.5840     5.8150 ha         1 KII       0.117000
     37 H10         92.0100    -6.8980    16.8010 h4         1 KII       0.165000
     38 H11         95.6200    -6.2810    16.0990 h1         1 KII       0.064033
     39 H12         94.5620    -5.0520    15.3410 h1         1 KII       0.064033
     40 H13         94.2250    -5.6220    17.0040 h1         1 KII       0.064033
     41 H14         90.6480    -8.7480    17.4310 ha         1 KII       0.124500
     42 H15         88.3100    -9.5720    17.6040 h4         1 KII       0.019100
     43 H16         87.9840    -9.9570    13.4830 h4         1 KII       0.019100
     44 H17         90.2860    -9.1110    13.1320 ha         1 KII       0.124500
@<TRIPOS>BOND
     1     1     3 2   
     2     1     5 1   
     3     2     3 1   
     4     2     4 2   
     5     2    28 1   
     6     3     6 1   
     7     4     5 1   
     8     4     8 1   
     9     5     9 1   
    10     6     7 ar  
    11     6    11 ar  
    12     7    10 ar  
    13     8    21 1   
    14     8    29 1   
    15     9    30 1   
    16     9    31 1   
    17     9    32 1   
    18    10    12 ar  
    19    10    33 1   
    20    11    13 ar  
    21    11    34 1   
    22    12    13 ar  
    23    12    35 1   
    24    13    36 1   
    25    14    15 1   
    26    14    18 2   
    27    14    21 1   
    28    15    16 2   
    29    15    20 1   
    30    16    17 1   
    31    16    37 1   
    32    17    18 1   
    33    17    19 1   
    34    19    38 1   
    35    19    39 1   
    36    19    40 1   
    37    20    23 ar  
    38    20    27 ar  
    39    21    22 2   
    40    23    24 ar  
    41    23    41 1   
    42    24    25 ar  
    43    24    42 1   
    44    25    26 ar  
    45    26    27 ar  
    46    26    43 1   
    47    27    44 1   
@<TRIPOS>SUBSTRUCTURE
     1 KII         1 TEMP              0 ****  ****    0 ROOT
