@<TRIPOS>MOLECULE
KIJ
   29    30     1     0     0
SMALL
bcc


@<TRIPOS>ATOM
      1 OAD         -1.0330     2.4040     0.0610 oh         1 KIJ      -0.504100
      2 CAT         -1.5910     1.1810     0.0090 ca         1 KIJ       0.075100
      3 CAP         -2.6020     0.8430    -0.8970 ca         1 KIJ       0.019100
      4 OAC         -2.9990     1.8340    -1.7290 oh         1 KIJ      -0.538100
      5 CAJ         -3.1360    -0.4340    -0.9030 ca         1 KIJ      -0.138000
      6 CAQ         -2.6800    -1.4080    -0.0170 ca         1 KIJ      -0.122600
      7 CAN         -3.2800    -2.8060    -0.0340 c          1 KIJ       0.927200
      8 OAB         -4.1820    -3.0150    -0.8680 o          1 KIJ      -0.817300
      9 OAA         -2.8210    -3.6190     0.7900 o          1 KIJ      -0.817300
     10 CAL         -1.6710    -1.0790     0.8790 ca         1 KIJ      -0.094000
     11 CAS         -1.1450     0.2010     0.8870 ca         1 KIJ       0.028100
     12 OAM         -0.1910     0.5410     1.8180 os         1 KIJ      -0.228200
     13 CAO          1.1030     0.6490     1.4370 ca         1 KIJ       0.166100
     14 CAK          1.5640     0.2850     0.1810 ca         1 KIJ      -0.136000
     15 CAH          1.9880     1.1380     2.3960 ca         1 KIJ      -0.132000
     16 CAG          3.3330     1.2640     2.0960 ca         1 KIJ      -0.117000
     17 CAI          3.8210     0.9120     0.8460 ca         1 KIJ      -0.122000
     18 CAR          2.9190     0.4290    -0.0860 ca         1 KIJ      -0.143200
     19 NAU          3.4040     0.0510    -1.4090 no         1 KIJ       0.311200
     20 OAF          2.6000    -0.3480    -2.2180 o          1 KIJ      -0.217500
     21 OAE          4.5870     0.1570    -1.6310 o          1 KIJ      -0.217500
     22 H1          -1.4090     2.9750    -0.6200 ho         1 KIJ       0.432000
     23 H2          -3.6940     1.5220    -2.3190 ho         1 KIJ       0.430000
     24 H3          -3.9230    -0.6800    -1.6070 ha         1 KIJ       0.156000
     25 H5          -1.2980    -1.8150     1.5790 ha         1 KIJ       0.168000
     26 H6           0.8940    -0.1070    -0.5700 ha         1 KIJ       0.192000
     27 H7           1.6160     1.4190     3.3730 ha         1 KIJ       0.150000
     28 H8           4.0120     1.6430     2.8460 ha         1 KIJ       0.133000
     29 H9           4.8720     1.0160     0.6200 ha         1 KIJ       0.158000
@<TRIPOS>BOND
     1     1     2 1   
     2     1    22 1   
     3     2     3 ar  
     4     2    11 ar  
     5     3     4 1   
     6     3     5 ar  
     7     4    23 1   
     8     5     6 ar  
     9     5    24 1   
    10     6     7 1   
    11     6    10 ar  
    12     7     8 1   
    13     7     9 1   
    14    10    11 ar  
    15    10    25 1   
    16    11    12 1   
    17    12    13 1   
    18    13    14 ar  
    19    13    15 ar  
    20    14    18 ar  
    21    14    26 1   
    22    15    16 ar  
    23    15    27 1   
    24    16    17 ar  
    25    16    28 1   
    26    17    18 ar  
    27    17    29 1   
    28    18    19 1   
    29    19    20 1   
    30    19    21 1   
@<TRIPOS>SUBSTRUCTURE
     1 KIJ         1 TEMP              0 ****  ****    0 ROOT
