@<TRIPOS>MOLECULE
KIJ
   29    30     1     0     0
SMALL
No Charge or Current Charge


@<TRIPOS>ATOM
      1 OAD         -0.9540     2.3420     0.0580 oh         1 KIJ      -0.543100
      2 CAT         -1.5370     1.1050     0.0450 ca         1 KIJ       0.075100
      3 CAP         -2.5710     0.8620    -0.8780 ca         1 KIJ       0.019100
      4 OAC         -2.9580     1.8550    -1.7410 oh         1 KIJ      -0.577100
      5 CAJ         -3.2080    -0.3910    -0.9120 ca         1 KIJ      -0.120000
      6 CAQ         -2.8240    -1.4230    -0.0190 ca         1 KIJ      -0.122600
      7 CAN         -3.5140    -2.7780    -0.0480 c          1 KIJ       0.716600
      8 OAB         -4.4090    -2.9630    -0.8610 o          1 KIJ      -0.712000
      9 OAA         -3.1490    -3.6370     0.7430 o          1 KIJ      -0.712000
     10 CAL         -1.7820    -1.1650     0.9040 ca         1 KIJ      -0.076000
     11 CAS         -1.1360     0.0820     0.9340 ca         1 KIJ       0.028100
     12 OAM         -0.1290     0.2840     1.8530 os         1 KIJ      -0.228200
     13 CAO          1.1760     0.5450     1.4890 ca         1 KIJ       0.166100
     14 CAK          1.6770     0.1860     0.2200 ca         1 KIJ      -0.118000
     15 CAH          2.0230     1.1560     2.4270 ca         1 KIJ      -0.114000
     16 CAG          3.3620     1.4250     2.1010 ca         1 KIJ      -0.099000
     17 CAI          3.8630     1.0800     0.8340 ca         1 KIJ      -0.104000
     18 CAR          3.0270     0.4540    -0.1220 ca         1 KIJ      -0.143200
     19 NAU          3.5610     0.0770    -1.4750 no         1 KIJ       0.691200
     20 OAF          2.7930    -0.4730    -2.2760 o          1 KIJ      -0.407500
     21 OAE          4.7460     0.3330    -1.7310 o          1 KIJ      -0.407500
     22 H1          -1.4150     2.8570    -0.6440 ho         1 KIJ       0.471000
     23 H2          -3.6870     1.5220    -2.3110 ho         1 KIJ       0.469000
     24 H3          -4.0060    -0.5680    -1.6290 ha         1 KIJ       0.138000
     25 H5          -1.4650    -1.9360     1.6030 ha         1 KIJ       0.150000
     26 H6           1.0190    -0.3000    -0.4950 ha         1 KIJ       0.174000
     27 H7           1.6370     1.4220     3.4080 ha         1 KIJ       0.132000
     28 H8           4.0130     1.9030     2.8310 ha         1 KIJ       0.115000
     29 H9           4.9050     1.2990     0.6040 ha         1 KIJ       0.140000
@<TRIPOS>BOND
     1     1     2 1   
     2     1    22 1   
     3     2     3 ar  
     4     2    11 ar  
     5     3     4 1   
     6     3     5 ar  
     7     4    23 1   
     8     5     6 ar  
     9     5    24 1   
    10     6     7 1   
    11     6    10 ar  
    12     7     8 1   
    13     7     9 1   
    14    10    11 ar  
    15    10    25 1   
    16    11    12 1   
    17    12    13 1   
    18    13    14 ar  
    19    13    15 ar  
    20    14    18 ar  
    21    14    26 1   
    22    15    16 ar  
    23    15    27 1   
    24    16    17 ar  
    25    16    28 1   
    26    17    18 ar  
    27    17    29 1   
    28    18    19 1   
    29    19    20 1   
    30    19    21 1   
@<TRIPOS>SUBSTRUCTURE
     1 KIJ         1 TEMP              0 ****  ****    0 ROOT
