@<TRIPOS>MOLECULE
KIK
   17    16     1     0     0
SMALL
bcc


@<TRIPOS>ATOM
      1 C5           2.9380     0.8630     0.0030 c2         1 KIK      -0.128000
      2 N1          -1.2920    -1.5490    -0.4290 n8         1 KIK      -0.868800
      3 C4           1.6580     0.7990    -0.3520 ce         1 KIK      -0.271200
      4 C3           0.8040    -0.3690    -0.0300 c          1 KIK       0.569300
      5 O3           1.2360    -1.3540     0.5280 o          1 KIK      -0.505100
      6 C2          -0.6540    -0.2530    -0.4260 c3         1 KIK       0.066500
      7 C1          -1.3230     0.7910     0.4800 c3         1 KIK       0.099400
      8 O1          -2.6350     0.9850     0.0110 oh         1 KIK      -0.601800
      9 H1           3.4180     0.0660     0.5560 ha         1 KIK       0.124500
     10 H2           3.5490     1.7180    -0.2520 ha         1 KIK       0.124500
     11 H4          -2.2640    -1.4390    -0.6870 hn         1 KIK       0.353800
     12 H6           1.2030     1.6130    -0.9060 ha         1 KIK       0.132000
     13 H7          -0.6740     0.1450    -1.4490 h1         1 KIK       0.087700
     14 H8          -1.3100     0.4170     1.5120 h1         1 KIK       0.027200
     15 H9          -0.7510     1.7290     0.4710 h1         1 KIK       0.027200
     16 H10         -3.0990     1.5500     0.6350 ho         1 KIK       0.410000
     17 H3          -1.2900    -1.9400     0.5060 hn         1 KIK       0.353800
@<TRIPOS>BOND
     1     1     3 2   
     2     1     9 1   
     3     1    10 1   
     4     2     6 1   
     5     2    11 1   
     6     2    17 1   
     7     3     4 1   
     8     3    12 1   
     9     4     5 2   
    10     4     6 1   
    11     6     7 1   
    12     6    13 1   
    13     7     8 1   
    14     7    14 1   
    15     7    15 1   
    16     8    16 1   
@<TRIPOS>SUBSTRUCTURE
     1 KIK         1 TEMP              0 ****  ****    0 ROOT
