@<TRIPOS>MOLECULE
KIK
   17    16     1     0     0
SMALL
No Charge or Current Charge


@<TRIPOS>ATOM
      1 C5           3.0720     0.8700    -0.0170 c2         1 KIK      -0.228000
      2 N1          -1.4040    -1.5530    -0.5220 n8         1 KIK      -0.979200
      3 C4           1.7570     0.7890    -0.3410 ce         1 KIK      -0.321200
      4 C3           0.8590    -0.3550     0.0270 c          1 KIK       0.569300
      5 O3           1.2870    -1.3230     0.6490 o          1 KIK      -0.505100
      6 C2          -0.6380    -0.2530    -0.4250 c3         1 KIK       0.066500
      7 C1          -1.3940     0.7700     0.4680 c3         1 KIK       0.122600
      8 O1          -2.7780     0.8510     0.0810 oh         1 KIK      -0.664000
      9 H1           3.5810     0.0870     0.5490 ha         1 KIK       0.174500
     10 H2           3.6830     1.7270    -0.3080 ha         1 KIK       0.174500
     11 H4          -2.4000    -1.3010    -0.5880 hn         1 KIK       0.409000
     12 H6           1.2840     1.5920    -0.9060 ha         1 KIK       0.182000
     13 H7          -0.6090     0.1780    -1.4360 h1         1 KIK       0.087700
     14 H8          -1.3150     0.4580     1.5180 h1         1 KIK       0.027200
     15 H9          -0.9150     1.7550     0.3770 h1         1 KIK       0.027200
     16 H10         -3.2040     1.5180     0.6650 ho         1 KIK       0.449000
     17 H3          -1.3500    -2.0380     0.3820 hn         1 KIK       0.409000
@<TRIPOS>BOND
     1     1     3 2   
     2     1     9 1   
     3     1    10 1   
     4     2     6 1   
     5     2    11 1   
     6     2    17 1   
     7     3     4 1   
     8     3    12 1   
     9     4     5 2   
    10     4     6 1   
    11     6     7 1   
    12     6    13 1   
    13     7     8 1   
    14     7    14 1   
    15     7    15 1   
    16     8    16 1   
@<TRIPOS>SUBSTRUCTURE
     1 KIK         1 TEMP              0 ****  ****    0 ROOT
