@<TRIPOS>MOLECULE
KIM
   55    58     1     0     0
SMALL
bcc


@<TRIPOS>ATOM
      1 N1          -1.7920     0.6650    -0.5490 nu         1 KIM      -0.738300
      2 N3           0.4520     0.6470    -0.7830 nb         1 KIM      -0.856000
      3 C4          -3.0980     0.4410    -0.1290 ca         1 KIM       0.253600
      4 C5          -0.5990     0.1520    -0.1270 ca         1 KIM       0.947900
      5 C6           0.6520    -1.1820     1.1740 ca         1 KIM       0.489200
      6 C7           1.8090    -0.7560     0.5800 ca         1 KIM      -0.467600
      7 C8           1.6590     0.2120    -0.4400 ca         1 KIM       0.755200
      8 C10          4.0420     0.4280    -0.7290 ca         1 KIM       0.172600
      9 C13          6.6450    -0.0570     0.0830 ca         1 KIM      -0.233900
     10 C17          4.8400    -0.3300    -1.5580 ca         1 KIM      -0.153000
     11 C21         -5.7880     0.1400     0.5790 ca         1 KIM      -0.008900
     12 C2          -5.4230     1.0050    -0.4570 ca         1 KIM       0.185100
     13 C3          -4.0870     1.1590    -0.8080 ca         1 KIM      -0.296500
     14 N2          -0.5670    -0.7450     0.8470 nb         1 KIM      -0.790000
     15 N4           2.7110     0.7200    -1.1220 nh         1 KIM      -0.681700
     16 C9           2.4890     1.6540    -2.2150 c3         1 KIM       0.232100
     17 C11          4.5240     0.9490     0.4940 ca         1 KIM      -0.175000
     18 C12          5.8120     0.7060     0.9090 ca         1 KIM      -0.042000
     19 C14          7.9950    -0.5130     0.1410 cc         1 KIM       0.363900
     20 N5           8.2770    -1.2100    -0.9310 nd         1 KIM      -0.513100
     21 N6           7.1770    -1.2360    -1.6940 na         1 KIM      -0.011100
     22 C16          6.1530    -0.5550    -1.1350 ca         1 KIM      -0.030200
     23 C18         -3.4480    -0.4300     0.9000 ca         1 KIM      -0.296500
     24 C19         -4.7920    -0.5770     1.2410 ca         1 KIM       0.185100
     25 O2          -5.2210    -1.3950     2.2180 os         1 KIM      -0.301400
     26 O3          -7.0950     0.0140     0.9380 os         1 KIM      -0.299900
     27 HN1         -1.6900     1.3320    -1.2980 hn         1 KIM       0.451800
     28 H6           0.6930    -1.9260     1.9630 h4         1 KIM       0.018100
     29 H7           2.7670    -1.1520     0.8780 ha         1 KIM       0.160000
     30 H15          8.6490    -0.6960     2.1690 hc         1 KIM       0.051700
     31 H15A         9.9480    -0.7240     0.9740 hc         1 KIM       0.051700
     32 H15B         9.1460     0.7940     1.3830 hc         1 KIM       0.051700
     33 H17          4.4600    -0.7310    -2.4890 ha         1 KIM       0.149000
     34 H20         -4.8220    -2.7220     3.6770 h1         1 KIM       0.041367
     35 H20A        -3.7150    -2.8360     2.3000 h1         1 KIM       0.041367
     36 H20B        -3.5530    -1.5040     3.4640 h1         1 KIM       0.041367
     37 H22         -8.8250    -0.9870     0.5840 h1         1 KIM       0.031367
     38 H22A        -7.7550    -0.8930    -0.8250 h1         1 KIM       0.031367
     39 H22B        -7.3800    -2.0100     0.5050 h1         1 KIM       0.031367
     40 H1          -5.4980     3.3770    -1.7580 h1         1 KIM       0.041367
     41 H1A         -5.6570     2.0640    -2.9460 h1         1 KIM       0.041367
     42 H1B         -7.0880     2.9720    -2.4280 h1         1 KIM       0.041367
     43 H3          -3.7990     1.8290    -1.6070 ha         1 KIM       0.157500
     44 H9           2.0060     2.5680    -1.8680 h1         1 KIM       0.045700
     45 H9A          3.4510     1.9150    -2.6450 h1         1 KIM       0.045700
     46 H9B          1.8680     1.2140    -2.9940 h1         1 KIM       0.045700
     47 H11          3.8590     1.5490     1.1020 ha         1 KIM       0.147000
     48 H12          6.1710     1.1060     1.8480 ha         1 KIM       0.142000
     49 HN6          7.1890    -1.7310    -2.5700 hn         1 KIM       0.328700
     50 H18         -2.6740    -0.9780     1.4110 ha         1 KIM       0.157500
     51 O1          -6.4370     1.6530    -1.0560 os         1 KIM      -0.301400
     52 C15          8.9880    -0.2740     1.2220 c3         1 KIM      -0.103400
     53 C20         -4.2670    -2.1450     2.9420 c3         1 KIM       0.123200
     54 C22         -7.7860    -1.0250     0.2600 c3         1 KIM       0.123700
     55 C1          -6.1380     2.5590    -2.0980 c3         1 KIM       0.123200
@<TRIPOS>BOND
     1     1     3 1   
     2     1     4 1   
     3     1    27 1   
     4     2     4 ar  
     5     2     7 ar  
     6     3    13 ar  
     7     3    23 ar  
     8     4    14 ar  
     9     5     6 ar  
    10     5    14 ar  
    11     5    28 1   
    12     6     7 ar  
    13     6    29 1   
    14     7    15 1   
    15     8    10 ar  
    16     8    15 1   
    17     8    17 ar  
    18     9    18 ar  
    19     9    19 1   
    20     9    22 ar  
    21    10    22 ar  
    22    10    33 1   
    23    11    12 ar  
    24    11    24 ar  
    25    11    26 1   
    26    12    13 ar  
    27    12    51 1   
    28    13    43 1   
    29    15    16 1   
    30    16    44 1   
    31    16    45 1   
    32    16    46 1   
    33    17    18 ar  
    34    17    47 1   
    35    18    48 1   
    36    19    20 2   
    37    19    52 1   
    38    20    21 1   
    39    21    22 1   
    40    21    49 1   
    41    23    24 ar  
    42    23    50 1   
    43    24    25 1   
    44    25    53 1   
    45    26    54 1   
    46    30    52 1   
    47    31    52 1   
    48    32    52 1   
    49    34    53 1   
    50    35    53 1   
    51    36    53 1   
    52    37    54 1   
    53    38    54 1   
    54    39    54 1   
    55    40    55 1   
    56    41    55 1   
    57    42    55 1   
    58    51    55 1   
@<TRIPOS>SUBSTRUCTURE
     1 KIM         1 TEMP              0 ****  ****    0 ROOT
