@<TRIPOS>MOLECULE
KIM
   55    58     1     0     0
SMALL
No Charge or Current Charge


@<TRIPOS>ATOM
      1 N1          -1.8170     0.7470    -0.6760 nu         1 KIM      -0.931900
      2 N3           0.4580     0.7480    -0.9070 nb         1 KIM      -0.330000
      3 C4          -3.1390     0.5010    -0.3240 ca         1 KIM       0.392000
      4 C5          -0.6240     0.0600    -0.5230 ca         1 KIM       0.421900
      5 C6           0.5320    -1.8200     0.0670 ca         1 KIM       0.160900
      6 C7           1.7260    -1.1860    -0.3010 ca         1 KIM      -0.319000
      7 C8           1.6470     0.1290    -0.7870 ca         1 KIM       0.426900
      8 C10          4.0880     0.5080    -0.7180 ca         1 KIM       0.311000
      9 C13          6.6250    -0.1380     0.2360 ca         1 KIM      -0.233900
     10 C17          5.1660     0.3520    -1.6210 ca         1 KIM      -0.135000
     11 C21         -5.8590     0.0840     0.3370 ca         1 KIM      -0.008900
     12 C2          -5.4970     0.8530    -0.7950 ca         1 KIM       0.185100
     13 C3          -4.1410     1.0600    -1.1130 ca         1 KIM      -0.278500
     14 N2          -0.6530    -1.1960    -0.0440 nb         1 KIM      -0.264000
     15 N4           2.8000     0.8430    -1.1950 nh         1 KIM      -0.820100
     16 C9           2.6600     2.0170    -2.0970 c3         1 KIM       0.232100
     17 C11          4.3130     0.3390     0.6730 ca         1 KIM      -0.157000
     18 C12          5.5930     0.0100     1.1700 ca         1 KIM      -0.024000
     19 C14          8.0220    -0.4630     0.3810 cc         1 KIM       0.363900
     20 N5           8.6480    -0.4980    -0.8060 nd         1 KIM      -0.513100
     21 N6           7.6300    -0.1900    -1.7200 na         1 KIM      -0.061400
     22 C16          6.4210     0.0260    -1.0950 ca         1 KIM      -0.030200
     23 C18         -3.4760    -0.2430     0.8090 ca         1 KIM      -0.278500
     24 C19         -4.8260    -0.4690     1.1540 ca         1 KIM       0.185100
     25 O2          -5.1390    -1.2140     2.2790 os         1 KIM      -0.324600
     26 O3          -7.2270    -0.0690     0.5710 os         1 KIM      -0.323100
     27 HN1         -1.7020     1.5760    -1.2540 hn         1 KIM       0.507000
     28 H6           0.5220    -2.8400     0.4480 h4         1 KIM       0.018100
     29 H7           2.6720    -1.7110    -0.2210 ha         1 KIM       0.142000
     30 H15          8.2640    -1.5900     2.1930 hc         1 KIM       0.051700
     31 H15A         9.7820    -0.9590     1.5260 hc         1 KIM       0.051700
     32 H15B         8.6510     0.1360     2.3450 hc         1 KIM       0.051700
     33 H17          5.0210     0.4700    -2.6910 ha         1 KIM       0.131000
     34 H20         -4.6290    -2.3610     3.9490 h1         1 KIM       0.041367
     35 H20A        -3.5230    -2.5200     2.5690 h1         1 KIM       0.041367
     36 H20B        -3.4990    -1.0450     3.5760 h1         1 KIM       0.041367
     37 H22         -8.8990    -0.7830     1.5960 h1         1 KIM       0.031367
     38 H22A        -7.5010    -1.8720     1.6080 h1         1 KIM       0.031367
     39 H22B        -7.5080    -0.3980     2.6240 h1         1 KIM       0.031367
     40 H1          -5.6810     3.0850    -2.4880 h1         1 KIM       0.041367
     41 H1A         -5.6920     1.6080    -3.4920 h1         1 KIM       0.041367
     42 H1B         -7.1990     2.5020    -3.2020 h1         1 KIM       0.041367
     43 H3          -3.8530     1.6440    -1.9800 ha         1 KIM       0.139500
     44 H9           2.0590     2.8050    -1.6230 h1         1 KIM       0.045700
     45 H9A          3.6400     2.4540    -2.3340 h1         1 KIM       0.045700
     46 H9B          2.1880     1.7230    -3.0440 h1         1 KIM       0.045700
     47 H11          3.4900     0.4700     1.3700 ha         1 KIM       0.129000
     48 H12          5.7670    -0.1210     2.2370 ha         1 KIM       0.124000
     49 HN6          7.8070    -0.1410    -2.7230 hn         1 KIM       0.379000
     50 H18         -2.6770    -0.6260     1.4290 ha         1 KIM       0.139500
     51 O1          -6.5100     1.3900    -1.5730 os         1 KIM      -0.324600
     52 C15          8.7200    -0.7340     1.6820 c3         1 KIM      -0.103400
     53 C20         -4.1460    -1.8120     3.1320 c3         1 KIM       0.146400
     54 C22         -7.8040    -0.8190     1.6550 c3         1 KIM       0.146900
     55 C1          -6.2530     2.1840    -2.7450 c3         1 KIM       0.146400
@<TRIPOS>BOND
     1     1     3 1   
     2     1     4 1   
     3     1    27 1   
     4     2     4 ar  
     5     2     7 ar  
     6     3    13 ar  
     7     3    23 ar  
     8     4    14 ar  
     9     5     6 ar  
    10     5    14 ar  
    11     5    28 1   
    12     6     7 ar  
    13     6    29 1   
    14     7    15 1   
    15     8    10 ar  
    16     8    15 1   
    17     8    17 ar  
    18     9    18 ar  
    19     9    19 1   
    20     9    22 ar  
    21    10    22 ar  
    22    10    33 1   
    23    11    12 ar  
    24    11    24 ar  
    25    11    26 1   
    26    12    13 ar  
    27    12    51 1   
    28    13    43 1   
    29    15    16 1   
    30    16    44 1   
    31    16    45 1   
    32    16    46 1   
    33    17    18 ar  
    34    17    47 1   
    35    18    48 1   
    36    19    20 2   
    37    19    52 1   
    38    20    21 1   
    39    21    22 1   
    40    21    49 1   
    41    23    24 ar  
    42    23    50 1   
    43    24    25 1   
    44    25    53 1   
    45    26    54 1   
    46    30    52 1   
    47    31    52 1   
    48    32    52 1   
    49    34    53 1   
    50    35    53 1   
    51    36    53 1   
    52    37    54 1   
    53    38    54 1   
    54    39    54 1   
    55    40    55 1   
    56    41    55 1   
    57    42    55 1   
    58    51    55 1   
@<TRIPOS>SUBSTRUCTURE
     1 KIM         1 TEMP              0 ****  ****    0 ROOT
