@<TRIPOS>MOLECULE
KIN
   41    43     1     0     0
SMALL
No Charge or Current Charge


@<TRIPOS>ATOM
      1 C11          2.7170    -3.6050     0.8170 ca         1 KIN      -0.089000
      2 C13          1.4990    -3.4480     0.1380 ca         1 KIN      -0.088000
      3 C21          3.2400    -0.7680     7.3200 ca         1 KIN      -0.001000
      4 C22          2.5560     0.0150     8.2700 ca         1 KIN      -0.146000
      5 C24          3.1600     0.3500     9.4950 ca         1 KIN      -0.082500
      6 C27          5.1490    -0.8870     8.8460 ca         1 KIN      -0.082500
      7 C32          6.3520     0.5900    11.1270 ca         1 KIN       0.172100
      8 C33          7.0270     1.3310    10.1450 ca         1 KIN      -0.220500
      9 C35          8.3700     1.6680    10.3580 ca         1 KIN       0.362400
     10 F01         -0.7680    -2.6030    -1.3390 f          1 KIN      -0.113333
     11 C02         -0.9050    -2.5750     0.0070 c3         1 KIN       0.356300
     12 F03         -1.7700    -3.5600     0.3360 f          1 KIN      -0.113333
     13 F04         -1.5100    -1.4020     0.3070 f          1 KIN      -0.113333
     14 C05          0.4350    -2.7420     0.7380 ca         1 KIN      -0.163300
     15 C06          0.6150    -2.2120     2.0350 ca         1 KIN      -0.130000
     16 C08          1.8330    -2.3630     2.7250 ca         1 KIN      -0.006000
     17 C09          2.8880    -3.0650     2.1030 ca         1 KIN      -0.106000
     18 N15          1.9230    -1.7930     4.0260 ns         1 KIN      -0.162000
     19 C17          2.9510    -1.7430     4.9570 c          1 KIN       0.675100
     20 O18          4.0620    -2.2320     4.7860 o          1 KIN      -0.600100
     21 N19          2.5620    -1.0670     6.1050 ns         1 KIN      -0.160000
     22 C26          4.4610    -0.0890     9.7800 ca         1 KIN       0.061100
     23 C29          4.5440    -1.2220     7.6210 ca         1 KIN      -0.146000
     24 O31          5.0280     0.2400    10.9910 os         1 KIN      -0.242200
     25 N37          9.0480     1.3170    11.4750 nb         1 KIN      -0.686000
     26 C38          8.3870     0.6130    12.4220 ca         1 KIN       0.362400
     27 C40          7.0440     0.2350    12.2900 ca         1 KIN      -0.220500
     28 H11          3.5330    -4.1490     0.3460 ha         1 KIN       0.125000
     29 H13          1.3870    -3.8800    -0.8550 ha         1 KIN       0.136000
     30 H22          1.5480     0.3680     8.0610 ha         1 KIN       0.134500
     31 H24          2.6220     0.9550    10.2210 ha         1 KIN       0.133000
     32 H27          6.1490    -1.2520     9.0690 ha         1 KIN       0.133000
     33 H33          6.5270     1.6490     9.2360 ha         1 KIN       0.135500
     34 H35          8.9230     2.2410     9.6140 h4         1 KIN       0.018600
     35 H06         -0.2030    -1.6770     2.5150 ha         1 KIN       0.121000
     36 H09          3.8450    -3.2090     2.5950 ha         1 KIN       0.156000
     37 HN15         1.0720    -1.3360     4.3260 hn         1 KIN       0.149000
     38 HN19         1.6130    -0.7180     6.0770 hn         1 KIN       0.149000
     39 H29          5.1050    -1.8390     6.9270 ha         1 KIN       0.134500
     40 H38          8.9530     0.3470    13.3140 h4         1 KIN       0.018600
     41 H40          6.5540    -0.3270    13.0780 ha         1 KIN       0.135500
@<TRIPOS>BOND
     1     1     2 ar  
     2     1    17 ar  
     3     1    28 1   
     4     2    14 ar  
     5     2    29 1   
     6     3     4 ar  
     7     3    21 1   
     8     3    23 ar  
     9     4     5 ar  
    10     4    30 1   
    11     5    22 ar  
    12     5    31 1   
    13     6    22 ar  
    14     6    23 ar  
    15     6    32 1   
    16     7     8 ar  
    17     7    24 1   
    18     7    27 ar  
    19     8     9 ar  
    20     8    33 1   
    21     9    25 ar  
    22     9    34 1   
    23    10    11 1   
    24    11    12 1   
    25    11    13 1   
    26    11    14 1   
    27    14    15 ar  
    28    15    16 ar  
    29    15    35 1   
    30    16    17 ar  
    31    16    18 1   
    32    17    36 1   
    33    18    19 1   
    34    18    37 1   
    35    19    20 2   
    36    19    21 1   
    37    21    38 1   
    38    22    24 1   
    39    23    39 1   
    40    25    26 ar  
    41    26    27 ar  
    42    26    40 1   
    43    27    41 1   
@<TRIPOS>SUBSTRUCTURE
     1 KIN         1 TEMP              0 ****  ****    0 ROOT
