@<TRIPOS>MOLECULE
KIN
   41    43     1     0     0
SMALL
bcc


@<TRIPOS>ATOM
      1 C11          2.5790    -3.7060     0.9960 ca         1 KIN      -0.107000
      2 C13          1.4470    -3.4220     0.2480 ca         1 KIN      -0.106000
      3 C21          3.3800    -0.9980     7.2840 ca         1 KIN       0.091600
      4 C22          2.9250    -0.0910     8.2460 ca         1 KIN      -0.164000
      5 C24          3.5930     0.0770     9.4450 ca         1 KIN      -0.100500
      6 C27          5.1980    -1.5700     8.7610 ca         1 KIN      -0.100500
      7 C32          6.3880     0.3480    11.0240 ca         1 KIN       0.172100
      8 C33          6.8280     1.1770     9.9980 ca         1 KIN      -0.303800
      9 C35          7.8780     2.0410    10.2700 ca         1 KIN       0.427700
     10 F01         -0.7750    -2.7310    -1.1920 f          1 KIN      -0.234633
     11 C02         -0.7560    -2.2270     0.0440 c3         1 KIN       0.720200
     12 F03         -1.8450    -2.6940     0.6740 f          1 KIN      -0.234633
     13 F04         -0.9250    -0.9020    -0.0710 f          1 KIN      -0.234633
     14 C05          0.4980    -2.5660     0.7880 ca         1 KIN      -0.163300
     15 C06          0.6790    -2.0120     2.0460 ca         1 KIN      -0.148000
     16 C08          1.8210    -2.3000     2.7960 ca         1 KIN       0.086600
     17 C09          2.7800    -3.1610     2.2540 ca         1 KIN      -0.124000
     18 N15          1.9100    -1.6900     4.0430 ns         1 KIN      -0.488100
     19 C17          2.8790    -1.8450     5.0000 c          1 KIN       0.809100
     20 O18          3.8490    -2.5680     4.8720 o          1 KIN      -0.600100
     21 N19          2.6260    -1.0940     6.1150 ns         1 KIN      -0.486100
     22 C26          4.7320    -0.6680     9.7000 ca         1 KIN       0.061100
     23 C29          4.5290    -1.7430     7.5580 ca         1 KIN      -0.164000
     24 O31          5.3800    -0.5390    10.9110 os         1 KIN      -0.242200
     25 N37          8.4930     2.1310    11.4410 nb         1 KIN      -0.686000
     26 C38          8.0590     1.3280    12.4090 ca         1 KIN       0.427700
     27 C40          7.0220     0.4270    12.2610 ca         1 KIN      -0.303800
     28 H11          3.3310    -4.3700     0.5900 ha         1 KIN       0.143000
     29 H13          1.3220    -3.8640    -0.7300 ha         1 KIN       0.154000
     30 H22          2.0320     0.4920     8.0570 ha         1 KIN       0.152500
     31 H24          3.2190     0.7820    10.1760 ha         1 KIN       0.151000
     32 H27          6.0870    -2.1550     8.9620 ha         1 KIN       0.151000
     33 H33          6.3840     1.1680     9.0130 ha         1 KIN       0.153500
     34 H35          8.2340     2.6960     9.4820 h4         1 KIN       0.018600
     35 H06         -0.0680    -1.3470     2.4650 ha         1 KIN       0.139000
     36 H09          3.6760    -3.4080     2.7980 ha         1 KIN       0.174000
     37 HN15         1.1410    -1.0750     4.2620 hn         1 KIN       0.315500
     38 HN19         1.8020    -0.5110     6.1050 hn         1 KIN       0.315500
     39 H29          4.9150    -2.4560     6.8490 ha         1 KIN       0.152500
     40 H38          8.5650     1.4040    13.3660 h4         1 KIN       0.018600
     41 H40          6.7140    -0.2010    13.0870 ha         1 KIN       0.153500
@<TRIPOS>BOND
     1     1     2 ar  
     2     1    17 ar  
     3     1    28 1   
     4     2    14 ar  
     5     2    29 1   
     6     3     4 ar  
     7     3    21 1   
     8     3    23 ar  
     9     4     5 ar  
    10     4    30 1   
    11     5    22 ar  
    12     5    31 1   
    13     6    22 ar  
    14     6    23 ar  
    15     6    32 1   
    16     7     8 ar  
    17     7    24 1   
    18     7    27 ar  
    19     8     9 ar  
    20     8    33 1   
    21     9    25 ar  
    22     9    34 1   
    23    10    11 1   
    24    11    12 1   
    25    11    13 1   
    26    11    14 1   
    27    14    15 ar  
    28    15    16 ar  
    29    15    35 1   
    30    16    17 ar  
    31    16    18 1   
    32    17    36 1   
    33    18    19 1   
    34    18    37 1   
    35    19    20 2   
    36    19    21 1   
    37    21    38 1   
    38    22    24 1   
    39    23    39 1   
    40    25    26 ar  
    41    26    27 ar  
    42    26    40 1   
    43    27    41 1   
@<TRIPOS>SUBSTRUCTURE
     1 KIN         1 TEMP              0 ****  ****    0 ROOT
