@<TRIPOS>MOLECULE
KIO
   79    85     1     0     0
SMALL
No Charge or Current Charge


@<TRIPOS>ATOM
      1 N1          19.2030     3.7620     7.8180 nb         1 KIO      -0.297000
      2 C7          14.0660     9.9150    10.5940 c3         1 KIO       0.207800
      3 C8          14.2770    11.1460    12.7810 c3         1 KIO       0.278900
      4 N2          19.1840     6.0780     8.5200 nb         1 KIO      -0.232000
      5 C9          15.7180    11.3840    12.8980 c1         1 KIO      -0.087100
      6 O1          19.0730     8.3290    12.6770 os         1 KIO      -0.450000
      7 C1          19.8000     4.9330     8.1420 ca         1 KIO       0.190900
      8 O5          17.5900     9.4470    15.8120 oh         1 KIO      -0.700000
      9 C5          17.1760     8.3580     9.3740 c5         1 KIO       0.266300
     10 C6          15.4980     9.8930     9.9940 c5         1 KIO       0.119300
     11 N3          15.7620     5.0680     8.3960 nc         1 KIO      -0.553100
     12 C4          15.6800     6.3510     8.7910 cd         1 KIO       0.397700
     13 O4          18.7900     7.0830    15.7860 oh         1 KIO      -0.706000
     14 C3          17.1350     4.8950     8.2670 ca         1 KIO      -0.102600
     15 C2          17.8390     6.0310     8.5780 ca         1 KIO       0.130500
     16 N4          16.9260     6.9890     8.9290 na         1 KIO      -0.301300
     17 C           17.8630     3.7500     7.8800 ca         1 KIO       0.455900
     18 O           16.1930     8.6820    10.3890 os         1 KIO      -0.438000
     19 C10         16.9260    11.5140    12.9440 cg         1 KIO      -0.118200
     20 C11         18.3400    11.6350    12.9330 cc         1 KIO       0.480700
     21 C12         20.2890    12.4850    12.6420 ca         1 KIO      -0.098600
     22 C13         21.4050    13.3020    12.3670 ca         1 KIO       0.453900
     23 C14         22.7720    11.5470    12.8990 ca         1 KIO       0.187900
     24 C15         20.5150    11.1940    13.0480 ca         1 KIO       0.145500
     25 C16         19.0590     9.2740    13.7530 c5         1 KIO       0.298300
     26 C17         18.8260     7.0350    13.2800 c5         1 KIO       0.146300
     27 C18         18.1610     6.0880    12.2500 c3         1 KIO       0.103000
     28 C19         15.7620     5.3120    12.4120 c          1 KIO       0.579100
     29 C20         14.2820     5.6600    12.1280 c3         1 KIO       0.011000
     30 C21         12.7150     7.6420    12.3850 c          1 KIO       0.602100
     31 C22         12.7290     9.1840    12.5750 c3         1 KIO       0.123800
     32 C23         18.0160     7.3220    14.6060 c5         1 KIO       0.125300
     33 C24         17.7540     8.8580    14.5030 c5         1 KIO       0.084300
     34 C25         15.5610     9.8680     8.4400 c5         1 KIO       0.145300
     35 C26         17.0480     9.4510     8.2540 c5         1 KIO       0.139300
     36 N10         19.2810    10.6370    13.2450 na         1 KIO      -0.257300
     37 N11         16.7090     6.2580    12.0620 ns         1 KIO      -0.493900
     38 N12         13.9770     7.1020    12.2640 ns         1 KIO      -0.503900
     39 N5          13.9780     9.8640    12.0880 n3         1 KIO      -0.779600
     40 N6          18.9290    12.7840    12.5600 nd         1 KIO      -0.533100
     41 N8          22.6560    12.8340    12.4920 nb         1 KIO      -0.304000
     42 N9          21.7590    10.6950    13.1880 nb         1 KIO      -0.216000
     43 O2          16.0760     4.2650    12.9610 o          1 KIO      -0.608100
     44 O6          15.2980    11.1410     7.8280 oh         1 KIO      -0.670000
     45 O7          17.9110    10.5820     8.4600 oh         1 KIO      -0.679000
     46 H1          13.5430    10.8070    10.2240 h1         1 KIO       0.033700
     47 H2          13.5400     9.0520    10.1650 h1         1 KIO       0.033700
     48 H3          13.8080    11.9930    12.2630 h1         1 KIO       0.062700
     49 H4          13.8770    11.1340    13.8040 h1         1 KIO       0.062700
     50 H5          20.8880     4.9570     8.0940 h5         1 KIO       0.051100
     51 H6          17.1430    10.3190    15.6960 ho         1 KIO       0.515000
     52 H7          18.1870     8.3680     9.8020 h2         1 KIO       0.119700
     53 H8          16.0570    10.7590    10.3660 h1         1 KIO       0.101700
     54 H9          14.7570     6.8770     9.0080 h5         1 KIO       0.058800
     55 H10         18.5450     7.8550    16.3600 ho         1 KIO       0.519000
     56 H11         17.8190     1.7290     7.5800 hn         1 KIO       0.509000
     57 H12         16.2760     2.4820     7.8010 hn         1 KIO       0.509000
     58 H13         23.7830    11.1570    13.0060 h5         1 KIO       0.048100
     59 H14         19.9180     9.0820    14.4110 h2         1 KIO       0.108700
     60 H15         19.8050     6.6020    13.5310 h1         1 KIO       0.074700
     61 H16         18.3680     5.0570    12.5640 h1         1 KIO       0.073200
     62 H17         18.6590     6.2260    11.2830 h1         1 KIO       0.073200
     63 H18         13.6570     5.0840    12.8220 h1         1 KIO       0.084200
     64 H19         14.0540     5.3430    11.1030 h1         1 KIO       0.084200
     65 H20         12.6160     9.3400    13.6550 h1         1 KIO       0.055700
     66 H21         11.8400     9.6000    12.0840 h1         1 KIO       0.055700
     67 H22         17.0710     6.7620    14.6470 h1         1 KIO       0.069700
     68 H23         16.8660     9.0240    13.8790 h1         1 KIO       0.067700
     69 H24         14.8900     9.0990     8.0320 h1         1 KIO       0.032700
     70 H25         17.2180     9.0180     7.2580 h1         1 KIO       0.070700
     71 H26         16.3870     7.0850    11.5670 hn         1 KIO       0.343500
     72 H27         14.7220     7.7940    12.2760 hn         1 KIO       0.317500
     73 H29         22.0870    15.0230    11.5020 hn         1 KIO       0.507500
     74 H30         20.3660    14.8960    11.6460 hn         1 KIO       0.507500
     75 H31         14.3490    11.1520     7.5590 ho         1 KIO       0.504000
     76 H32         17.3670    11.3510     8.1620 ho         1 KIO       0.516000
     77 N           17.2590     2.5760     7.5550 nv         1 KIO      -1.060900
     78 N7          21.2860    14.5930    11.9560 nv         1 KIO      -1.061900
     79 O3          11.6970     6.9600    12.3440 o          1 KIO      -0.591100
@<TRIPOS>BOND
     1     1     7 ar  
     2     1    17 ar  
     3     2    10 1   
     4     2    39 1   
     5     2    46 1   
     6     2    47 1   
     7     3     5 1   
     8     3    39 1   
     9     3    48 1   
    10     3    49 1   
    11     4     7 ar  
    12     4    15 ar  
    13     5    19 3   
    14     6    25 1   
    15     6    26 1   
    16     7    50 1   
    17     8    33 1   
    18     8    51 1   
    19     9    16 1   
    20     9    18 1   
    21     9    35 1   
    22     9    52 1   
    23    10    18 1   
    24    10    34 1   
    25    10    53 1   
    26    11    12 2   
    27    11    14 1   
    28    12    16 1   
    29    12    54 1   
    30    13    32 1   
    31    13    55 1   
    32    14    15 ar  
    33    14    17 ar  
    34    15    16 1   
    35    17    77 1   
    36    19    20 1   
    37    20    36 1   
    38    20    40 2   
    39    21    22 ar  
    40    21    24 ar  
    41    21    40 1   
    42    22    41 ar  
    43    22    78 1   
    44    23    41 ar  
    45    23    42 ar  
    46    23    58 1   
    47    24    36 1   
    48    24    42 ar  
    49    25    33 1   
    50    25    36 1   
    51    25    59 1   
    52    26    27 1   
    53    26    32 1   
    54    26    60 1   
    55    27    37 1   
    56    27    61 1   
    57    27    62 1   
    58    28    29 1   
    59    28    37 1   
    60    28    43 2   
    61    29    38 1   
    62    29    63 1   
    63    29    64 1   
    64    30    31 1   
    65    30    38 1   
    66    30    79 2   
    67    31    39 1   
    68    31    65 1   
    69    31    66 1   
    70    32    33 1   
    71    32    67 1   
    72    33    68 1   
    73    34    35 1   
    74    34    44 1   
    75    34    69 1   
    76    35    45 1   
    77    35    70 1   
    78    37    71 1   
    79    38    72 1   
    80    44    75 1   
    81    45    76 1   
    82    56    77 1   
    83    57    77 1   
    84    73    78 1   
    85    74    78 1   
@<TRIPOS>SUBSTRUCTURE
     1 KIO         1 TEMP              0 ****  ****    0 ROOT
