@<TRIPOS>MOLECULE
KIO
   79    85     1     0     0
SMALL
abcg2


@<TRIPOS>ATOM
      1 N1          18.5560     3.5080     7.8360 nb         1 KIO      -0.297000
      2 C7          14.1760     9.9870    10.1570 c3         1 KIO       0.207800
      3 C8          14.3390    10.7790    12.4690 c3         1 KIO       0.278900
      4 N2          18.7850     5.7930     8.4970 nb         1 KIO      -0.232000
      5 C9          15.7660    11.0210    12.6490 c1         1 KIO      -0.087100
      6 O1          18.8550     8.6110    12.5860 os         1 KIO      -0.450000
      7 C1          19.2410     4.5840     8.2160 ca         1 KIO       0.190900
      8 O5          18.8230     9.3680    16.0390 oh         1 KIO      -0.700000
      9 C5          17.0730     8.2470     9.0290 c5         1 KIO       0.266300
     10 C6          15.6090     9.9440     9.6590 c5         1 KIO       0.119300
     11 N3          15.3110     5.2480     7.9900 nc         1 KIO      -0.553100
     12 C4          15.3700     6.4950     8.3530 cd         1 KIO       0.397700
     13 O4          19.3440     6.7850    15.3840 oh         1 KIO      -0.706000
     14 C3          16.6150     4.8290     7.9930 ca         1 KIO      -0.102600
     15 C2          17.4610     5.8600     8.3690 ca         1 KIO       0.130500
     16 N4          16.6450     6.9320     8.5940 na         1 KIO      -0.301300
     17 C           17.2260     3.5930     7.7110 ca         1 KIO       0.455900
     18 O           16.1950     8.6960    10.0200 os         1 KIO      -0.438000
     19 C10         16.9380    11.2440    12.8070 cg         1 KIO      -0.118200
     20 C11         18.2880    11.6340    12.9520 cc         1 KIO       0.480700
     21 C12         20.0420    12.8180    12.9930 ca         1 KIO      -0.098600
     22 C13         21.0490    13.8040    12.9510 ca         1 KIO       0.453900
     23 C14         22.5290    12.1700    13.6090 ca         1 KIO       0.187900
     24 C15         20.4400    11.5450    13.3660 ca         1 KIO       0.145500
     25 C16         19.2790     9.3900    13.6710 c5         1 KIO       0.298300
     26 C17         18.8200     7.2830    13.1080 c5         1 KIO       0.146300
     27 C18         18.0130     6.3630    12.2110 c3         1 KIO       0.103000
     28 C19         15.8860     5.4550    12.9540 c          1 KIO       0.579100
     29 C20         14.3680     5.5190    12.8790 c3         1 KIO       0.011000
     30 C21         13.4290     7.7790    12.8710 c          1 KIO       0.602100
     31 C22         12.9100     8.8850    11.9680 c3         1 KIO       0.123800
     32 C23         18.3800     7.4130    14.5830 c5         1 KIO       0.125300
     33 C24         18.3520     8.9470    14.7940 c5         1 KIO       0.084300
     34 C25         15.7360     9.9920     8.1320 c5         1 KIO       0.145300
     35 C26         17.0810     9.3090     7.9120 c5         1 KIO       0.139300
     36 N10         19.3040    10.7830    13.3390 na         1 KIO      -0.257300
     37 N11         16.5790     6.4260    12.3360 ns         1 KIO      -0.493900
     38 N12         13.7970     6.6560    12.2200 ns         1 KIO      -0.503900
     39 N5          14.0500     9.6870    11.5660 n3         1 KIO      -0.779600
     40 N6          18.7050    12.8540    12.7360 nd         1 KIO      -0.533100
     41 N8          22.2940    13.4340    13.2710 nb         1 KIO      -0.304000
     42 N9          21.6730    11.1650    13.6840 nb         1 KIO      -0.216000
     43 O2          16.4060     4.5190    13.5440 o          1 KIO      -0.608100
     44 O6          15.7040    11.2720     7.5820 oh         1 KIO      -0.670000
     45 O7          18.0940    10.2520     8.1290 oh         1 KIO      -0.679000
     46 H1          13.7570    10.9740     9.9030 h1         1 KIO       0.033700
     47 H2          13.5980     9.2490     9.5970 h1         1 KIO       0.033700
     48 H3          13.8650    11.7200    12.1470 h1         1 KIO       0.062700
     49 H4          13.9160    10.5540    13.4510 h1         1 KIO       0.062700
     50 H5          20.3140     4.4460     8.3030 h5         1 KIO       0.051100
     51 H6          18.0760     9.5960    16.6000 ho         1 KIO       0.515000
     52 H7          18.0840     8.1180     9.4280 h2         1 KIO       0.119700
     53 H8          16.1950    10.7630    10.0890 h1         1 KIO       0.101700
     54 H9          14.5110     7.1390     8.4690 h5         1 KIO       0.058800
     55 H10         19.2060     7.0690    16.2950 ho         1 KIO       0.519000
     56 H11         17.0020     1.6430     7.1630 hn         1 KIO       0.509000
     57 H12         15.5320     2.5460     7.2720 hn         1 KIO       0.509000
     58 H13         23.5600    11.9380    13.8570 h5         1 KIO       0.048100
     59 H14         20.3140     9.1460    13.9500 h2         1 KIO       0.108700
     60 H15         19.8460     6.8900    13.1140 h1         1 KIO       0.074700
     61 H16         18.3270     5.3430    12.4300 h1         1 KIO       0.073200
     62 H17         18.3000     6.5490    11.1740 h1         1 KIO       0.073200
     63 H18         13.9860     5.4470    13.8980 h1         1 KIO       0.084200
     64 H19         14.0430     4.6140    12.3610 h1         1 KIO       0.084200
     65 H20         12.1480     9.4600    12.5030 h1         1 KIO       0.055700
     66 H21         12.4270     8.4660    11.0850 h1         1 KIO       0.055700
     67 H22         17.3840     6.9930    14.7600 h1         1 KIO       0.069700
     68 H23         17.3390     9.3120    14.5920 h1         1 KIO       0.067700
     69 H24         14.9620     9.3470     7.6900 h1         1 KIO       0.032700
     70 H25         17.1620     8.8410     6.9240 h1         1 KIO       0.070700
     71 H26         16.0840     7.1570    11.8460 hn         1 KIO       0.343500
     72 H27         13.6420     6.5900    11.2260 hn         1 KIO       0.317500
     73 H29         21.5610    15.7330    12.5590 hn         1 KIO       0.507500
     74 H30         19.8900    15.3650    12.3290 hn         1 KIO       0.507500
     75 H31         14.7860    11.5450     7.5000 ho         1 KIO       0.504000
     76 H32         18.9440     9.8370     7.9470 ho         1 KIO       0.516000
     77 N           16.5360     2.5200     7.3230 nv         1 KIO      -1.060900
     78 N7          20.8070    15.0690    12.6180 nv         1 KIO      -1.061900
     79 O3          13.5660     7.9250    14.0750 o          1 KIO      -0.591100
@<TRIPOS>BOND
     1     1     7 ar  
     2     1    17 ar  
     3     2    10 1   
     4     2    39 1   
     5     2    46 1   
     6     2    47 1   
     7     3     5 1   
     8     3    39 1   
     9     3    48 1   
    10     3    49 1   
    11     4     7 ar  
    12     4    15 ar  
    13     5    19 3   
    14     6    25 1   
    15     6    26 1   
    16     7    50 1   
    17     8    33 1   
    18     8    51 1   
    19     9    16 1   
    20     9    18 1   
    21     9    35 1   
    22     9    52 1   
    23    10    18 1   
    24    10    34 1   
    25    10    53 1   
    26    11    12 2   
    27    11    14 1   
    28    12    16 1   
    29    12    54 1   
    30    13    32 1   
    31    13    55 1   
    32    14    15 ar  
    33    14    17 ar  
    34    15    16 1   
    35    17    77 1   
    36    19    20 1   
    37    20    36 1   
    38    20    40 2   
    39    21    22 ar  
    40    21    24 ar  
    41    21    40 1   
    42    22    41 ar  
    43    22    78 1   
    44    23    41 ar  
    45    23    42 ar  
    46    23    58 1   
    47    24    36 1   
    48    24    42 ar  
    49    25    33 1   
    50    25    36 1   
    51    25    59 1   
    52    26    27 1   
    53    26    32 1   
    54    26    60 1   
    55    27    37 1   
    56    27    61 1   
    57    27    62 1   
    58    28    29 1   
    59    28    37 1   
    60    28    43 2   
    61    29    38 1   
    62    29    63 1   
    63    29    64 1   
    64    30    31 1   
    65    30    38 1   
    66    30    79 2   
    67    31    39 1   
    68    31    65 1   
    69    31    66 1   
    70    32    33 1   
    71    32    67 1   
    72    33    68 1   
    73    34    35 1   
    74    34    44 1   
    75    34    69 1   
    76    35    45 1   
    77    35    70 1   
    78    37    71 1   
    79    38    72 1   
    80    44    75 1   
    81    45    76 1   
    82    56    77 1   
    83    57    77 1   
    84    73    78 1   
    85    74    78 1   
@<TRIPOS>SUBSTRUCTURE
     1 KIO         1 TEMP              0 ****  ****    0 ROOT
