@<TRIPOS>MOLECULE
KIQ
   48    51     1     0     0
SMALL
bcc


@<TRIPOS>ATOM
      1 C4          -1.1100     0.3340     0.5040 ce         1 KIQ      -0.171400
      2 C5          -1.1990     1.8160     0.6380 c          1 KIQ       0.684300
      3 C8          -3.3980     1.6590     1.8120 c6         1 KIQ       0.087000
      4 C15         -6.0530     3.9000     0.4720 cc         1 KIQ       0.256800
      5 C20         -1.9850    -0.3310    -0.2490 c2         1 KIQ      -0.134200
      6 C21         -1.8690    -1.7870    -0.5590 c6         1 KIQ      -0.036200
      7 C22         -0.4760    -2.3360    -0.2400 c6         1 KIQ      -0.054400
      8 C24         -1.2630    -4.6190     0.4940 ca         1 KIQ      -0.126000
      9 C30          0.3940    -4.5210    -1.1940 ca         1 KIQ       0.148900
     10 C29          0.4430    -5.9020    -1.2780 ca         1 KIQ      -0.190000
     11 C27         -0.3800    -6.6340    -0.4520 ca         1 KIQ       0.130900
     12 F28         -0.3640    -7.9670    -0.5010 f          1 KIQ      -0.113900
     13 C25         -1.2300    -5.9930     0.4330 ca         1 KIQ       0.084900
     14 F26         -2.0170    -6.7270     1.2260 f          1 KIQ      -0.118900
     15 C23         -0.4460    -3.8400    -0.3280 ca         1 KIQ      -0.115300
     16 C           -0.0060    -1.8390     1.1430 c6         1 KIQ       0.174500
     17 N            1.2600    -2.3810     1.5940 n8         1 KIQ      -0.884800
     18 C3           0.0890    -0.3170     1.1300 c6         1 KIQ      -0.029200
     19 O           -0.2390     2.5130     0.3440 o          1 KIQ      -0.568100
     20 N7          -2.3720     2.3550     1.0600 n          1 KIQ      -0.491800
     21 C12         -2.5300     3.7950     1.0590 c6         1 KIQ       0.063700
     22 C11         -3.9510     4.1250     0.7500 cc         1 KIQ       0.388800
     23 N13         -4.4330     5.2890     0.4100 nd         1 KIQ      -0.345000
     24 N14         -5.7630     5.1440     0.2370 nd         1 KIQ      -0.287000
     25 F19         -8.2910     4.2130    -0.0410 f          1 KIQ      -0.219300
     26 F18         -7.4530     2.2600    -0.4200 f          1 KIQ      -0.219300
     27 F           -7.8330     2.8920     1.5990 f          1 KIQ      -0.219300
     28 N10         -4.9390     3.2080     0.8080 na         1 KIQ      -0.307700
     29 C9          -4.7440     1.7990     1.1270 c6         1 KIQ       0.031300
     30 H81         -3.4510     2.0840     2.8190 h1         1 KIQ       0.070700
     31 H82         -3.1560     0.6070     1.9170 h1         1 KIQ       0.070700
     32 H20         -2.8290     0.1910    -0.6870 ha         1 KIQ       0.130000
     33 H211        -2.6410    -2.3240     0.0030 hc         1 KIQ       0.059200
     34 H212        -2.1050    -1.9570    -1.6120 hc         1 KIQ       0.059200
     35 H22          0.2160    -1.9240    -0.9800 hc         1 KIQ       0.076700
     36 H24         -1.9390    -4.1510     1.2000 ha         1 KIQ       0.157000
     37 H29          1.1110    -6.3960    -1.9720 ha         1 KIQ       0.176000
     38 H           -0.7660    -2.1240     1.8800 h1         1 KIQ       0.057700
     39 HN1          1.9760    -2.2190     0.8940 hn         1 KIQ       0.347800
     40 HN2          1.1960    -3.3850     1.7060 hn         1 KIQ       0.347800
     41 H31          0.9950    -0.0080     0.5960 hc         1 KIQ       0.073700
     42 H32          0.2120     0.0370     2.1580 hc         1 KIQ       0.073700
     43 H121        -1.8850     4.2450     0.3080 h1         1 KIQ       0.093200
     44 H122        -2.2570     4.2240     2.0290 h1         1 KIQ       0.093200
     45 H91         -4.7800     1.2140     0.2080 h1         1 KIQ       0.077200
     46 H92         -5.5330     1.4580     1.7930 h1         1 KIQ       0.077200
     47 F31          1.2080    -3.8270    -2.0040 f          1 KIQ      -0.131900
     48 C16         -7.4200     3.3170     0.3990 c3         1 KIQ       0.671600
@<TRIPOS>BOND
     1     1     2 1   
     2     1     5 2   
     3     1    18 1   
     4     2    19 2   
     5     2    20 1   
     6     3    20 1   
     7     3    29 1   
     8     3    30 1   
     9     3    31 1   
    10     4    24 2   
    11     4    28 1   
    12     4    48 1   
    13     5     6 1   
    14     5    32 1   
    15     6     7 1   
    16     6    33 1   
    17     6    34 1   
    18     7    15 1   
    19     7    16 1   
    20     7    35 1   
    21     8    13 ar  
    22     8    15 ar  
    23     8    36 1   
    24     9    10 ar  
    25     9    15 ar  
    26     9    47 1   
    27    10    11 ar  
    28    10    37 1   
    29    11    12 1   
    30    11    13 ar  
    31    13    14 1   
    32    16    17 1   
    33    16    18 1   
    34    16    38 1   
    35    17    39 1   
    36    17    40 1   
    37    18    41 1   
    38    18    42 1   
    39    20    21 1   
    40    21    22 1   
    41    21    43 1   
    42    21    44 1   
    43    22    23 2   
    44    22    28 1   
    45    23    24 1   
    46    25    48 1   
    47    26    48 1   
    48    27    48 1   
    49    28    29 1   
    50    29    45 1   
    51    29    46 1   
@<TRIPOS>SUBSTRUCTURE
     1 KIQ         1 TEMP              0 ****  ****    0 ROOT
