@<TRIPOS>MOLECULE
KIQ
   48    51     1     0     0
SMALL
No Charge or Current Charge


@<TRIPOS>ATOM
      1 C4          -1.0560     0.2710     0.7150 ce         1 KIQ      -0.171400
      2 C5          -1.2080     1.7430     1.0410 c          1 KIQ       0.617300
      3 C8          -3.6880     1.6450     1.6400 c6         1 KIQ       0.087000
      4 C15         -6.2010     4.2310     0.4000 cc         1 KIQ       0.256800
      5 C20         -1.9830    -0.4620     0.0390 c2         1 KIQ      -0.184200
      6 C21         -1.8410    -1.9470    -0.2780 c6         1 KIQ      -0.036200
      7 C22         -0.3840    -2.4600    -0.1550 c6         1 KIQ      -0.054400
      8 C24         -0.8450    -4.8100     0.7600 ca         1 KIQ      -0.108000
      9 C30          0.2150    -4.6280    -1.4250 ca         1 KIQ       0.184000
     10 C29          0.2520    -6.0270    -1.5280 ca         1 KIQ      -0.172000
     11 C27         -0.2590    -6.8180    -0.4890 ca         1 KIQ       0.166000
     12 F28         -0.2220    -8.1660    -0.5960 f          1 KIQ      -0.149000
     13 C25         -0.8090    -6.2100     0.6540 ca         1 KIQ       0.120000
     14 F26         -1.3080    -6.9680     1.6580 f          1 KIQ      -0.154000
     15 C23         -0.3280    -3.9990    -0.2770 ca         1 KIQ      -0.115300
     16 C            0.2400    -1.9150     1.1600 c6         1 KIQ       0.174500
     17 N            1.5950    -2.4690     1.3780 n8         1 KIQ      -0.995200
     18 C3           0.2850    -0.3670     1.1310 c6         1 KIQ      -0.029200
     19 O           -0.2220     2.4360     1.2600 o          1 KIQ      -0.568100
     20 N7          -2.4910     2.3390     1.0590 n          1 KIQ      -0.424800
     21 C12         -2.6210     3.8370     1.0470 c6         1 KIQ       0.063700
     22 C11         -4.0250     4.3110     0.7440 cc         1 KIQ       0.388800
     23 N13         -4.4470     5.5410     0.5020 nd         1 KIQ      -0.345000
     24 N14         -5.8060     5.4920     0.2860 nd         1 KIQ      -0.287000
     25 F19         -8.4790     4.6950    -0.1550 f          1 KIQ      -0.098000
     26 F18         -7.6970     2.7400    -0.6990 f          1 KIQ      -0.098000
     27 F           -8.1070     3.2070     1.3880 f          1 KIQ      -0.098000
     28 N10         -5.0960     3.4600     0.6980 na         1 KIQ      -0.337000
     29 C9          -5.0060     2.0000     0.9000 c6         1 KIQ       0.060600
     30 H81         -3.7880     1.9740     2.6850 h1         1 KIQ       0.070700
     31 H82         -3.5610     0.5570     1.6870 h1         1 KIQ       0.070700
     32 H20         -2.8990    -0.0050    -0.3380 ha         1 KIQ       0.180000
     33 H211        -2.4940    -2.5090     0.4040 hc         1 KIQ       0.059200
     34 H212        -2.2160    -2.1460    -1.2910 hc         1 KIQ       0.059200
     35 H22          0.1820    -2.0120    -0.9830 hc         1 KIQ       0.076700
     36 H24         -1.2810    -4.3610     1.6490 ha         1 KIQ       0.139000
     37 H29          0.6720    -6.4970    -2.4130 ha         1 KIQ       0.158000
     38 H           -0.3860    -2.2290     2.0090 h1         1 KIQ       0.057700
     39 HN1          2.1770    -2.2380     0.5660 hn         1 KIQ       0.403000
     40 HN2          1.5300    -3.4920     1.3350 hn         1 KIQ       0.403000
     41 H31          1.0660    -0.0290     0.4360 hc         1 KIQ       0.073700
     42 H32          0.5800    -0.0030     2.1250 hc         1 KIQ       0.073700
     43 H121        -1.9350     4.2520     0.2950 h1         1 KIQ       0.093200
     44 H122        -2.3050     4.2330     2.0220 h1         1 KIQ       0.093200
     45 H91         -5.0230     1.5030    -0.0800 h1         1 KIQ       0.077200
     46 H92         -5.8680     1.6410     1.4810 h1         1 KIQ       0.077200
     47 F31          0.7080    -3.8920    -2.4470 f          1 KIQ      -0.167000
     48 C16         -7.6240     3.7190     0.2320 c3         1 KIQ       0.307700
@<TRIPOS>BOND
     1     1     2 1   
     2     1     5 2   
     3     1    18 1   
     4     2    19 2   
     5     2    20 1   
     6     3    20 1   
     7     3    29 1   
     8     3    30 1   
     9     3    31 1   
    10     4    24 2   
    11     4    28 1   
    12     4    48 1   
    13     5     6 1   
    14     5    32 1   
    15     6     7 1   
    16     6    33 1   
    17     6    34 1   
    18     7    15 1   
    19     7    16 1   
    20     7    35 1   
    21     8    13 ar  
    22     8    15 ar  
    23     8    36 1   
    24     9    10 ar  
    25     9    15 ar  
    26     9    47 1   
    27    10    11 ar  
    28    10    37 1   
    29    11    12 1   
    30    11    13 ar  
    31    13    14 1   
    32    16    17 1   
    33    16    18 1   
    34    16    38 1   
    35    17    39 1   
    36    17    40 1   
    37    18    41 1   
    38    18    42 1   
    39    20    21 1   
    40    21    22 1   
    41    21    43 1   
    42    21    44 1   
    43    22    23 2   
    44    22    28 1   
    45    23    24 1   
    46    25    48 1   
    47    26    48 1   
    48    27    48 1   
    49    28    29 1   
    50    29    45 1   
    51    29    46 1   
@<TRIPOS>SUBSTRUCTURE
     1 KIQ         1 TEMP              0 ****  ****    0 ROOT
