@<TRIPOS>MOLECULE
KIR
  117   119     1     0     0
SMALL
abcg2


@<TRIPOS>ATOM
      1 C2         -15.5790   -47.8900    32.2730 c          1 KIR       0.577200
      2 C3         -16.3510   -49.0960    32.2280 cc         1 KIR      -0.349400
      3 C4         -16.4860   -49.7950    31.0500 cd         1 KIR       0.243100
      4 C5         -15.8700   -49.3470    29.8540 cd         1 KIR      -0.374000
      5 C6         -15.1430   -48.2020    29.9020 cc         1 KIR       0.014600
      6 C7         -16.9480   -49.5970    33.5170 c          1 KIR       0.615500
      7 C8         -18.3660   -49.3570    33.8060 ce         1 KIR      -0.161400
      8 C20        -25.7830   -42.0130    30.0960 c3         1 KIR       0.200500
      9 C21        -25.5000   -40.7910    29.2530 c2         1 KIR      -0.129400
     10 C25        -22.3060   -37.0090    28.4130 c3         1 KIR       0.132200
     11 O4         -17.2210   -50.9260    31.0650 oh         1 KIR      -0.515100
     12 O7         -16.2290   -50.2080    34.3020 o          1 KIR      -0.511100
     13 C9         -19.1020   -48.6390    32.9220 cf         1 KIR      -0.125000
     14 C10        -20.4950   -48.3160    33.0050 cf         1 KIR      -0.183000
     15 C11        -21.1140   -47.6060    32.0330 ce         1 KIR      -0.157000
     16 C12        -22.5120   -47.2590    32.0370 ce         1 KIR      -0.184000
     17 C13        -23.0800   -46.5510    31.0510 c2         1 KIR      -0.172200
     18 C14        -24.5230   -46.1980    30.9920 c5         1 KIR       0.194500
     19 C15        -25.3020   -46.8350    29.8330 c5         1 KIR       0.151300
     20 C16        -26.4790   -45.8560    29.6690 c5         1 KIR       0.105300
     21 C17        -25.9510   -44.5060    30.2480 c5         1 KIR       0.139300
     22 C19        -25.8690   -43.3200    29.2860 c3         1 KIR      -0.039700
     23 C22        -24.3810   -40.0880    29.4920 ce         1 KIR      -0.176000
     24 C23        -23.9040   -38.9280    28.7660 ce         1 KIR      -0.174000
     25 O15        -24.5020   -46.8890    28.6600 oh         1 KIR      -0.713000
     26 N1         -15.0100   -47.5140    31.0590 ns         1 KIR      -0.370100
     27 O2         -15.4060   -47.1810    33.2760 o          1 KIR      -0.550000
     28 C41        -18.8870   -49.9410    35.0850 c3         1 KIR      -0.043900
     29 O16        -26.8770   -45.8460    28.3080 oh         1 KIR      -0.728000
     30 O18        -24.6440   -44.7880    30.7790 os         1 KIR      -0.448000
     31 C42        -24.7130   -43.4470    28.2920 c3         1 KIR      -0.079100
     32 C44        -26.5250   -40.4450    28.2140 c3         1 KIR      -0.053900
     33 N26        -22.8340   -36.8480    27.0770 ns         1 KIR      -0.503900
     34 C27        -23.7530   -35.9280    26.7310 c          1 KIR       0.613100
     35 O27        -24.2240   -35.1260    27.5370 o          1 KIR      -0.595100
     36 C45        -25.7140   -35.8490    25.1520 c3         1 KIR      -0.059400
     37 C46        -26.4450   -37.0240    25.8020 c3         1 KIR      -0.093100
     38 C28        -24.1930   -35.9820    25.2650 c3         1 KIR      -0.107700
     39 C29        -23.4220   -34.9450    24.4250 c6         1 KIR       0.413000
     40 O29        -23.7580   -33.6540    24.8920 oh         1 KIR      -0.707000
     41 C30        -23.7440   -35.0570    22.9230 c6         1 KIR       0.127300
     42 O30        -23.7910   -36.4300    22.5630 oh         1 KIR      -0.709000
     43 C31        -22.7180   -34.2880    22.0830 c6         1 KIR       0.135300
     44 O31        -23.0780   -34.5620    20.7300 oh         1 KIR      -0.733000
     45 C32        -21.2380   -34.6020    22.4150 c6         1 KIR      -0.099000
     46 C47        -20.8160   -36.0150    22.0010 c3         1 KIR      -0.082600
     47 C48        -20.3530   -33.5710    21.7000 c3         1 KIR      -0.082600
     48 C33        -21.1150   -34.4110    23.9560 c6         1 KIR       0.219500
     49 O34        -22.0530   -35.2330    24.6470 os         1 KIR      -0.469000
     50 C35        -19.7480   -34.7080    24.4830 c2         1 KIR      -0.219200
     51 C36        -19.4290   -35.7130    25.3050 ce         1 KIR      -0.148000
     52 C37        -18.0730   -35.9660    25.7570 ce         1 KIR      -0.198000
     53 C38        -17.6870   -36.9910    26.5310 c2         1 KIR      -0.195200
     54 C39        -18.5820   -38.0620    27.0900 c3         1 KIR      -0.062900
     55 H51        -15.9760   -49.9010    28.9330 ha         1 KIR       0.203000
     56 H61        -14.6410   -47.7870    29.0400 h4         1 KIR       0.204000
     57 H201       -24.9740   -42.1160    30.8310 h1         1 KIR       0.052700
     58 H241       -22.2820   -38.4930    30.0280 ha         1 KIR       0.173000
     59 H251       -21.2150   -37.0580    28.3600 h1         1 KIR       0.066200
     60 H252       -22.5480   -36.1060    28.9780 h1         1 KIR       0.066200
     61 H41        -17.2630   -51.3150    30.1800 ho         1 KIR       0.473000
     62 H91        -18.5960   -48.2640    32.0390 ha         1 KIR       0.173000
     63 H101       -21.0730   -48.6570    33.8570 ha         1 KIR       0.179000
     64 H111       -20.5300   -47.2640    31.1830 ha         1 KIR       0.171000
     65 H121       -23.1120   -47.5930    32.8790 ha         1 KIR       0.171000
     66 H131       -22.4780   -46.2100    30.2160 ha         1 KIR       0.194000
     67 H141       -25.0260   -46.4810    31.9260 h1         1 KIR       0.043700
     68 H151       -25.6400   -47.8400    30.0990 h1         1 KIR       0.057700
     69 H161       -27.3080   -46.1990    30.2910 h1         1 KIR       0.044700
     70 H171       -26.5990   -44.2270    31.0830 h1         1 KIR       0.062700
     71 H191       -26.8130   -43.2910    28.7360 hc         1 KIR       0.055700
     72 H221       -23.7450   -40.4250    30.3080 ha         1 KIR       0.169000
     73 H231       -24.4400   -38.6310    27.8720 ha         1 KIR       0.176000
     74 HO51       -25.0960   -46.7540    27.9080 ho         1 KIR       0.527000
     75 H11        -14.4690   -46.6600    31.0700 hn         1 KIR       0.334500
     76 H411       -18.3200   -49.5590    35.9370 hc         1 KIR       0.048033
     77 H412       -19.9380   -49.7100    35.2430 hc         1 KIR       0.048033
     78 H413       -18.7680   -51.0260    35.0900 hc         1 KIR       0.048033
     79 HO61       -27.7580   -45.4600    28.2330 ho         1 KIR       0.522000
     80 H421       -23.7530   -43.3640    28.8010 hc         1 KIR       0.043700
     81 H422       -24.7420   -44.4090    27.7860 hc         1 KIR       0.043700
     82 H423       -24.7640   -42.6650    27.5350 hc         1 KIR       0.043700
     83 H431       -26.8850   -39.8910    31.3830 h1         1 KIR       0.032367
     84 H432       -27.9960   -40.9380    32.2990 h1         1 KIR       0.032367
     85 H433       -26.2360   -41.0750    32.5400 h1         1 KIR       0.032367
     86 H441       -27.5110   -40.3720    28.6800 hc         1 KIR       0.044033
     87 H442       -26.3150   -39.5020    27.7140 hc         1 KIR       0.044033
     88 H443       -26.5950   -41.2250    27.4500 hc         1 KIR       0.044033
     89 H261       -22.4920   -37.4700    26.3620 hn         1 KIR       0.314500
     90 H451       -26.0270   -34.9100    25.6090 hc         1 KIR       0.056200
     91 H452       -25.9880   -35.8010    24.0970 hc         1 KIR       0.056200
     92 H461       -26.2240   -37.0930    26.8690 hc         1 KIR       0.036033
     93 H462       -27.5260   -36.9180    25.6920 hc         1 KIR       0.036033
     94 H463       -26.1520   -37.9700    25.3400 hc         1 KIR       0.036033
     95 H281       -23.9050   -36.9530    24.8610 hc         1 KIR       0.079700
     96 H291       -23.6260   -32.9940    24.2010 ho         1 KIR       0.501000
     97 H301       -24.7220   -34.5990    22.7480 h1         1 KIR       0.055700
     98 HO01       -23.8690   -36.4640    21.6000 ho         1 KIR       0.527000
     99 H311       -22.8640   -33.2170    22.2770 h1         1 KIR       0.027700
    100 HO11       -22.5260   -34.0360    20.1380 ho         1 KIR       0.516000
    101 H471       -21.0810   -36.1960    20.9590 hc         1 KIR       0.042033
    102 H472       -19.7360   -36.1240    22.1010 hc         1 KIR       0.042033
    103 H473       -21.2980   -36.7730    22.6120 hc         1 KIR       0.042033
    104 H481       -20.5940   -32.5530    22.0160 hc         1 KIR       0.042033
    105 H482       -19.2990   -33.7550    21.9050 hc         1 KIR       0.042033
    106 H483       -20.4810   -33.6320    20.6170 hc         1 KIR       0.042033
    107 H331       -21.3380   -33.3550    24.1730 h1         1 KIR       0.042700
    108 H351       -18.9690   -34.0370    24.1380 ha         1 KIR       0.172000
    109 H361       -20.2140   -36.3740    25.6510 ha         1 KIR       0.186000
    110 H371       -17.3180   -35.2610    25.4210 ha         1 KIR       0.168000
    111 H381       -16.6340   -37.0620    26.7840 ha         1 KIR       0.169000
    112 H391       -19.2990   -38.4260    26.3520 hc         1 KIR       0.041033
    113 H392       -17.9980   -38.9120    27.4430 hc         1 KIR       0.041033
    114 H393       -19.1600   -37.6930    27.9430 hc         1 KIR       0.041033
    115 O20        -27.0280   -41.8900    30.7990 os         1 KIR      -0.477000
    116 C43        -27.0270   -40.8910    31.8040 c3         1 KIR       0.146900
    117 C24        -22.8330   -38.2170    29.1340 c2         1 KIR      -0.233200
@<TRIPOS>BOND
     1     1     2 1   
     2     1    26 1   
     3     1    27 2   
     4     2     3 2   
     5     2     6 1   
     6     3     4 1   
     7     3    11 1   
     8     4     5 2   
     9     4    55 1   
    10     5    26 1   
    11     5    56 1   
    12     6     7 1   
    13     6    12 2   
    14     7    13 2   
    15     7    28 1   
    16     8     9 1   
    17     8    22 1   
    18     8    57 1   
    19     8   115 1   
    20     9    23 2   
    21     9    32 1   
    22    10    33 1   
    23    10    59 1   
    24    10    60 1   
    25    10   117 1   
    26    11    61 1   
    27    13    14 1   
    28    13    62 1   
    29    14    15 2   
    30    14    63 1   
    31    15    16 1   
    32    15    64 1   
    33    16    17 2   
    34    16    65 1   
    35    17    18 1   
    36    17    66 1   
    37    18    19 1   
    38    18    30 1   
    39    18    67 1   
    40    19    20 1   
    41    19    25 1   
    42    19    68 1   
    43    20    21 1   
    44    20    29 1   
    45    20    69 1   
    46    21    22 1   
    47    21    30 1   
    48    21    70 1   
    49    22    31 1   
    50    22    71 1   
    51    23    24 1   
    52    23    72 1   
    53    24    73 1   
    54    24   117 2   
    55    25    74 1   
    56    26    75 1   
    57    28    76 1   
    58    28    77 1   
    59    28    78 1   
    60    29    79 1   
    61    31    80 1   
    62    31    81 1   
    63    31    82 1   
    64    32    86 1   
    65    32    87 1   
    66    32    88 1   
    67    33    34 1   
    68    33    89 1   
    69    34    35 2   
    70    34    38 1   
    71    36    37 1   
    72    36    38 1   
    73    36    90 1   
    74    36    91 1   
    75    37    92 1   
    76    37    93 1   
    77    37    94 1   
    78    38    39 1   
    79    38    95 1   
    80    39    40 1   
    81    39    41 1   
    82    39    49 1   
    83    40    96 1   
    84    41    42 1   
    85    41    43 1   
    86    41    97 1   
    87    42    98 1   
    88    43    44 1   
    89    43    45 1   
    90    43    99 1   
    91    44   100 1   
    92    45    46 1   
    93    45    47 1   
    94    45    48 1   
    95    46   101 1   
    96    46   102 1   
    97    46   103 1   
    98    47   104 1   
    99    47   105 1   
   100    47   106 1   
   101    48    49 1   
   102    48    50 1   
   103    48   107 1   
   104    50    51 2   
   105    50   108 1   
   106    51    52 1   
   107    51   109 1   
   108    52    53 2   
   109    52   110 1   
   110    53    54 1   
   111    53   111 1   
   112    54   112 1   
   113    54   113 1   
   114    54   114 1   
   115    58   117 1   
   116    83   116 1   
   117    84   116 1   
   118    85   116 1   
   119   115   116 1   
@<TRIPOS>SUBSTRUCTURE
     1 KIR         1 TEMP              0 ****  ****    0 ROOT
