@<TRIPOS>MOLECULE
KIR
  117   119     1     0     0
SMALL
No Charge or Current Charge


@<TRIPOS>ATOM
      1 C2         -14.2700   -47.6980    31.5920 c          1 KIR       0.577200
      2 C3         -15.4050   -48.6100    31.4210 cc         1 KIR      -0.349400
      3 C4         -15.7470   -49.1200    30.1870 cd         1 KIR       0.243100
      4 C5         -15.0350   -48.6710    29.0260 cd         1 KIR      -0.374000
      5 C6         -14.0010   -47.7720    29.1650 cc         1 KIR       0.014600
      6 C7         -16.0550   -49.1180    32.6370 c          1 KIR       0.615500
      7 C8         -17.5450   -48.8500    32.8000 ce         1 KIR      -0.161400
      8 C20        -25.7740   -41.4440    30.5680 c3         1 KIR       0.200500
      9 C21        -26.0950   -40.0690    29.9630 c2         1 KIR      -0.129400
     10 C25        -24.4740   -35.4930    28.5440 c3         1 KIR       0.132200
     11 O4         -16.7110   -50.0400    30.0280 oh         1 KIR      -0.515100
     12 O7         -15.3990   -49.6500    33.5250 o          1 KIR      -0.511100
     13 C9         -18.2500   -48.0370    31.9480 cf         1 KIR      -0.125000
     14 C10        -19.6710   -47.7100    32.0380 cf         1 KIR      -0.183000
     15 C11        -20.3300   -46.9110    31.1570 ce         1 KIR      -0.157000
     16 C12        -21.7540   -46.5740    31.2470 ce         1 KIR      -0.184000
     17 C13        -22.3810   -45.7770    30.3510 c2         1 KIR      -0.172200
     18 C14        -23.8650   -45.5250    30.5940 c5         1 KIR       0.194500
     19 C15        -24.7610   -46.2430    29.5290 c5         1 KIR       0.151300
     20 C16        -26.0480   -45.3450    29.5550 c5         1 KIR       0.105300
     21 C17        -25.5480   -44.0010    30.2380 c5         1 KIR       0.139300
     22 C19        -25.9100   -42.6320    29.5660 c3         1 KIR      -0.039700
     23 C22        -25.1530   -39.0990    29.8670 ce         1 KIR      -0.176000
     24 C23        -25.3440   -37.7760    29.2560 ce         1 KIR      -0.174000
     25 O15        -24.2470   -46.2050    28.1920 oh         1 KIR      -0.713000
     26 N1         -13.6540   -47.3350    30.4260 ns         1 KIR      -0.370100
     27 O2         -13.8920   -47.2500    32.6620 o          1 KIR      -0.550000
     28 C41        -18.2360   -49.5220    33.9890 c3         1 KIR      -0.043900
     29 O16        -26.5860   -45.2150    28.2170 oh         1 KIR      -0.728000
     30 O18        -24.1140   -44.1350    30.3430 os         1 KIR      -0.448000
     31 C42        -25.0950   -42.3520    28.2690 c3         1 KIR      -0.079100
     32 C44        -27.5280   -39.9190    29.4550 c3         1 KIR      -0.053900
     33 N26        -24.5790   -35.6490    27.0980 ns         1 KIR      -0.503900
     34 C27        -24.1740   -34.7090    26.1780 c          1 KIR       0.613100
     35 O27        -23.7060   -33.6280    26.5140 o          1 KIR      -0.595100
     36 C45        -25.3680   -34.1850    23.9840 c3         1 KIR      -0.059400
     37 C46        -26.7710   -34.2040    24.6290 c3         1 KIR      -0.093100
     38 C28        -24.3300   -35.1010    24.7020 c3         1 KIR      -0.107700
     39 C29        -22.9250   -35.1610    24.0240 c6         1 KIR       0.413000
     40 O29        -22.3380   -33.8610    24.0830 oh         1 KIR      -0.707000
     41 C30        -22.9660   -35.7050    22.5410 c6         1 KIR       0.127300
     42 O30        -23.7400   -36.9060    22.3520 oh         1 KIR      -0.709000
     43 C31        -21.5190   -36.0150    22.0400 c6         1 KIR       0.135300
     44 O31        -21.6140   -36.6570    20.7510 oh         1 KIR      -0.733000
     45 C32        -20.6630   -36.8810    23.0470 c6         1 KIR      -0.099000
     46 C47        -21.1220   -38.3830    23.1250 c3         1 KIR      -0.082600
     47 C48        -19.1730   -36.9030    22.5670 c3         1 KIR      -0.082600
     48 C33        -20.7520   -36.1980    24.4570 c6         1 KIR       0.219500
     49 O34        -22.1320   -36.0250    24.8560 os         1 KIR      -0.469000
     50 C35        -20.0090   -36.9550    25.5570 c2         1 KIR      -0.219200
     51 C36        -20.5770   -37.8810    26.3630 ce         1 KIR      -0.148000
     52 C37        -19.8450   -38.5880    27.4200 ce         1 KIR      -0.198000
     53 C38        -20.3860   -39.5230    28.2330 c2         1 KIR      -0.195200
     54 C39        -21.8170   -40.0200    28.2150 c3         1 KIR      -0.062900
     55 H51        -15.2900   -49.0380    28.0360 ha         1 KIR       0.203000
     56 H61        -13.3870   -47.3600    28.3660 h4         1 KIR       0.204000
     57 H201       -24.7340   -41.4390    30.9240 h1         1 KIR       0.052700
     58 H241       -23.3690   -37.0690    29.5860 ha         1 KIR       0.173000
     59 H251       -23.5880   -34.8890    28.7880 h1         1 KIR       0.066200
     60 H252       -25.3640   -34.9690    28.9160 h1         1 KIR       0.066200
     61 H41        -16.7470   -50.2470    29.0710 ho         1 KIR       0.473000
     62 H91        -17.7220   -47.5590    31.1210 ha         1 KIR       0.173000
     63 H101       -20.2410   -48.1300    32.8690 ha         1 KIR       0.179000
     64 H111       -19.7730   -46.4830    30.3200 ha         1 KIR       0.171000
     65 H121       -22.3010   -47.0030    32.0900 ha         1 KIR       0.171000
     66 H131       -21.8630   -45.3370    29.4990 ha         1 KIR       0.194000
     67 H141       -24.1830   -45.7650    31.6190 h1         1 KIR       0.043700
     68 H151       -24.9830   -47.2770    29.8280 h1         1 KIR       0.057700
     69 H161       -26.8020   -45.8110    30.2060 h1         1 KIR       0.044700
     70 H171       -25.9490   -43.9940    31.2610 h1         1 KIR       0.062700
     71 H191       -26.9660   -42.6800    29.2750 hc         1 KIR       0.055700
     72 H221       -24.1520   -39.2970    30.2530 ha         1 KIR       0.169000
     73 H231       -26.3260   -37.5460    28.8370 ha         1 KIR       0.176000
     74 HO51       -25.0160   -45.7650    27.7360 ho         1 KIR       0.527000
     75 H11        -12.8810   -46.6890    30.5360 hn         1 KIR       0.334500
     76 H411       -17.5990   -50.2440    34.5130 hc         1 KIR       0.048033
     77 H412       -18.5560   -48.7780    34.7290 hc         1 KIR       0.048033
     78 H413       -19.1260   -50.0750    33.6670 hc         1 KIR       0.048033
     79 HO61       -27.5250   -44.9220    28.3040 ho         1 KIR       0.522000
     80 H421       -24.0410   -42.1670    28.5050 hc         1 KIR       0.043700
     81 H422       -25.1370   -43.1930    27.5700 hc         1 KIR       0.043700
     82 H423       -25.4810   -41.4730    27.7400 hc         1 KIR       0.043700
     83 H431       -26.6790   -39.7690    32.5560 h1         1 KIR       0.032367
     84 H432       -27.1570   -41.0990    33.6290 h1         1 KIR       0.032367
     85 H433       -25.4470   -40.8860    33.1960 h1         1 KIR       0.032367
     86 H441       -28.2090   -40.6590    29.8890 hc         1 KIR       0.044033
     87 H442       -27.9390   -38.9340    29.7050 hc         1 KIR       0.044033
     88 H443       -27.5700   -40.0330    28.3660 hc         1 KIR       0.044033
     89 H261       -24.9270   -36.5290    26.7390 hn         1 KIR       0.314500
     90 H451       -25.0020   -33.1500    23.9650 hc         1 KIR       0.056200
     91 H452       -25.4710   -34.4990    22.9390 hc         1 KIR       0.056200
     92 H461       -26.7440   -33.8080    25.6510 hc         1 KIR       0.036033
     93 H462       -27.4650   -33.5870    24.0460 hc         1 KIR       0.036033
     94 H463       -27.1690   -35.2260    24.6630 hc         1 KIR       0.036033
     95 H281       -24.7460   -36.1140    24.6820 hc         1 KIR       0.079700
     96 H291       -22.5450   -33.5480    24.9950 ho         1 KIR       0.501000
     97 H301       -23.3730   -34.9090    21.9010 h1         1 KIR       0.055700
     98 HO01       -23.2340   -37.3410    21.6190 ho         1 KIR       0.527000
     99 H311       -21.0120   -35.0460    21.9220 h1         1 KIR       0.027700
    100 HO11       -20.7200   -36.6080    20.3410 ho         1 KIR       0.516000
    101 H471       -21.1770   -38.8510    22.1350 hc         1 KIR       0.042033
    102 H472       -20.4230   -38.9870    23.7160 hc         1 KIR       0.042033
    103 H473       -22.1040   -38.4910    23.5990 hc         1 KIR       0.042033
    104 H481       -18.7650   -35.8880    22.4870 hc         1 KIR       0.042033
    105 H482       -18.5290   -37.4580    23.2610 hc         1 KIR       0.042033
    106 H483       -19.0660   -37.3790    21.5850 hc         1 KIR       0.042033
    107 H331       -20.2830   -35.2060    24.3860 h1         1 KIR       0.042700
    108 H351       -18.9580   -36.6920    25.6710 ha         1 KIR       0.172000
    109 H361       -21.6320   -38.1300    26.2380 ha         1 KIR       0.186000
    110 H371       -18.7920   -38.3240    27.5400 ha         1 KIR       0.168000
    111 H381       -19.7640   -39.9990    28.9950 ha         1 KIR       0.169000
    112 H391       -22.0260   -40.5890    27.3000 hc         1 KIR       0.041033
    113 H392       -22.0180   -40.6780    29.0690 hc         1 KIR       0.041033
    114 H393       -22.5290   -39.1880    28.2620 hc         1 KIR       0.041033
    115 O20        -26.6620   -41.6820    31.6830 os         1 KIR      -0.477000
    116 C43        -26.4750   -40.8160    32.8180 c3         1 KIR       0.146900
    117 C24        -24.3590   -36.8570    29.1790 c2         1 KIR      -0.233200
@<TRIPOS>BOND
     1     1     2 1   
     2     1    26 1   
     3     1    27 2   
     4     2     3 2   
     5     2     6 1   
     6     3     4 1   
     7     3    11 1   
     8     4     5 2   
     9     4    55 1   
    10     5    26 1   
    11     5    56 1   
    12     6     7 1   
    13     6    12 2   
    14     7    13 2   
    15     7    28 1   
    16     8     9 1   
    17     8    22 1   
    18     8    57 1   
    19     8   115 1   
    20     9    23 2   
    21     9    32 1   
    22    10    33 1   
    23    10    59 1   
    24    10    60 1   
    25    10   117 1   
    26    11    61 1   
    27    13    14 1   
    28    13    62 1   
    29    14    15 2   
    30    14    63 1   
    31    15    16 1   
    32    15    64 1   
    33    16    17 2   
    34    16    65 1   
    35    17    18 1   
    36    17    66 1   
    37    18    19 1   
    38    18    30 1   
    39    18    67 1   
    40    19    20 1   
    41    19    25 1   
    42    19    68 1   
    43    20    21 1   
    44    20    29 1   
    45    20    69 1   
    46    21    22 1   
    47    21    30 1   
    48    21    70 1   
    49    22    31 1   
    50    22    71 1   
    51    23    24 1   
    52    23    72 1   
    53    24    73 1   
    54    24   117 2   
    55    25    74 1   
    56    26    75 1   
    57    28    76 1   
    58    28    77 1   
    59    28    78 1   
    60    29    79 1   
    61    31    80 1   
    62    31    81 1   
    63    31    82 1   
    64    32    86 1   
    65    32    87 1   
    66    32    88 1   
    67    33    34 1   
    68    33    89 1   
    69    34    35 2   
    70    34    38 1   
    71    36    37 1   
    72    36    38 1   
    73    36    90 1   
    74    36    91 1   
    75    37    92 1   
    76    37    93 1   
    77    37    94 1   
    78    38    39 1   
    79    38    95 1   
    80    39    40 1   
    81    39    41 1   
    82    39    49 1   
    83    40    96 1   
    84    41    42 1   
    85    41    43 1   
    86    41    97 1   
    87    42    98 1   
    88    43    44 1   
    89    43    45 1   
    90    43    99 1   
    91    44   100 1   
    92    45    46 1   
    93    45    47 1   
    94    45    48 1   
    95    46   101 1   
    96    46   102 1   
    97    46   103 1   
    98    47   104 1   
    99    47   105 1   
   100    47   106 1   
   101    48    49 1   
   102    48    50 1   
   103    48   107 1   
   104    50    51 2   
   105    50   108 1   
   106    51    52 1   
   107    51   109 1   
   108    52    53 2   
   109    52   110 1   
   110    53    54 1   
   111    53   111 1   
   112    54   112 1   
   113    54   113 1   
   114    54   114 1   
   115    58   117 1   
   116    83   116 1   
   117    84   116 1   
   118    85   116 1   
   119   115   116 1   
@<TRIPOS>SUBSTRUCTURE
     1 KIR         1 TEMP              0 ****  ****    0 ROOT
