@<TRIPOS>MOLECULE
KIS
   61    64     1     0     0
SMALL
abcg2


@<TRIPOS>ATOM
      1 N3          15.1710    37.5780   -15.8530 nc         1 KIS      -0.613000
      2 C4          13.6790    37.3520   -14.1660 cd         1 KIS      -0.094300
      3 C5          14.9570    38.7360   -15.3170 cd         1 KIS       0.398400
      4 C6          13.6120    39.7660   -13.5280 ca         1 KIS       0.012800
      5 C8          12.2510    40.0080   -13.4140 ca         1 KIS      -0.155500
      6 C10         11.8250    41.1010   -12.6720 ca         1 KIS       0.123600
      7 C15         12.7320    36.8800   -13.1260 c3         1 KIS      -0.034800
      8 C17         12.7410    41.9580   -12.0780 ca         1 KIS      -0.116000
      9 C20         14.0970    41.7080   -12.2240 ca         1 KIS      -0.078000
     10 C21         15.1920    33.5800   -16.8860 c3         1 KIS       0.164600
     11 C22         16.1230    32.7480   -16.0310 c3         1 KIS      -0.108100
     12 C1          14.3840    36.6990   -15.1540 cc         1 KIS       0.179500
     13 N2          14.0580    38.6610   -14.2920 na         1 KIS      -0.089300
     14 O12         13.6130    34.4790   -14.8870 o          1 KIS      -0.510000
     15 O14         15.1420    34.9470   -16.4570 os         1 KIS      -0.414600
     16 C16         14.5450    40.6040   -12.9340 ca         1 KIS      -0.119000
     17 C30          8.8530    36.2850    -8.3850 cc         1 KIS       0.179500
     18 N31          9.0120    37.5070   -10.1680 na         1 KIS      -0.089300
     19 N32          9.9820    35.8780    -9.0480 nc         1 KIS      -0.613000
     20 C33          8.2280    37.3070    -9.0660 cd         1 KIS      -0.094300
     21 C34         10.0500    36.6230   -10.1050 cd         1 KIS       0.398400
     22 C35          8.8190    38.4740   -11.1850 ca         1 KIS       0.012800
     23 C37          7.6650    38.4510   -11.9560 ca         1 KIS      -0.119000
     24 C38          7.4850    39.4250   -12.9250 ca         1 KIS      -0.078000
     25 O39          7.3870    35.9630    -6.5540 o          1 KIS      -0.510000
     26 O40          9.2960    34.8020    -6.6660 os         1 KIS      -0.414600
     27 C41          7.0180    38.1190    -8.7860 c3         1 KIS      -0.034800
     28 C42          9.7930    39.4420   -11.3770 ca         1 KIS      -0.155500
     29 C43          8.4510    40.3980   -13.1420 ca         1 KIS      -0.116000
     30 C44          9.6000    40.3990   -12.3660 ca         1 KIS       0.123600
     31 O35         10.5010    41.4070   -12.5550 os         1 KIS      -0.247200
     32 C45          8.9930    34.1340    -5.4330 c3         1 KIS       0.164600
     33 C46         10.1490    33.2190    -5.1090 c3         1 KIS      -0.108100
     34 H1          15.3950    39.6750   -15.6200 h5         1 KIS       0.062600
     35 H2          11.5390    39.3670   -13.9200 ha         1 KIS       0.142500
     36 H3          12.8250    37.4660   -12.2120 hc         1 KIS       0.061867
     37 H4          11.6960    36.9560   -13.4610 hc         1 KIS       0.061867
     38 H5          12.9230    35.8390   -12.8850 hc         1 KIS       0.061867
     39 H6          12.3940    42.8110   -11.5090 ha         1 KIS       0.139000
     40 H7          14.8140    42.3710   -11.7590 ha         1 KIS       0.129000
     41 H8          14.1890    33.1510   -16.9090 h1         1 KIS       0.051200
     42 H9          15.5580    33.6280   -17.9110 h1         1 KIS       0.051200
     43 H10         16.1910    31.7440   -16.4510 hc         1 KIS       0.046533
     44 H11         17.1280    33.1690   -16.0140 hc         1 KIS       0.046533
     45 H12         15.7660    32.6570   -15.0060 hc         1 KIS       0.046533
     46 H13         15.6030    40.3950   -13.0180 ha         1 KIS       0.136000
     47 H14         10.8060    36.5780   -10.8750 h5         1 KIS       0.062600
     48 H15          6.9220    37.6790   -11.8040 ha         1 KIS       0.136000
     49 H16          6.5900    39.4180   -13.5320 ha         1 KIS       0.129000
     50 H17          7.1670    39.1600    -9.0750 hc         1 KIS       0.061867
     51 H18          6.1510    37.7480    -9.3360 hc         1 KIS       0.061867
     52 H19          6.7750    38.0870    -7.7290 hc         1 KIS       0.061867
     53 H20         10.6730    39.4640   -10.7450 ha         1 KIS       0.142500
     54 H21          8.3130    41.1540   -13.9050 ha         1 KIS       0.139000
     55 H22          8.8450    34.8690    -4.6400 h1         1 KIS       0.051200
     56 H23          8.0660    33.5660    -5.5380 h1         1 KIS       0.051200
     57 H24          9.9440    32.7030    -4.1720 hc         1 KIS       0.046533
     58 H25         10.2920    32.4630    -5.8810 hc         1 KIS       0.046533
     59 H26         11.0790    33.7740    -4.9890 hc         1 KIS       0.046533
     60 C7          14.3270    35.2700   -15.4620 c          1 KIS       0.539600
     61 C36          8.4200    35.6870    -7.1210 c          1 KIS       0.539600
@<TRIPOS>BOND
     1     1     3 2   
     2     1    12 1   
     3     2     7 1   
     4     2    12 2   
     5     2    13 1   
     6     3    13 1   
     7     3    34 1   
     8     4     5 ar  
     9     4    13 1   
    10     4    16 ar  
    11     5     6 ar  
    12     5    35 1   
    13     6     8 ar  
    14     6    31 1   
    15     7    36 1   
    16     7    37 1   
    17     7    38 1   
    18     8     9 ar  
    19     8    39 1   
    20     9    16 ar  
    21     9    40 1   
    22    10    11 1   
    23    10    15 1   
    24    10    41 1   
    25    10    42 1   
    26    11    43 1   
    27    11    44 1   
    28    11    45 1   
    29    12    60 1   
    30    14    60 2   
    31    15    60 1   
    32    16    46 1   
    33    17    19 1   
    34    17    20 2   
    35    17    61 1   
    36    18    20 1   
    37    18    21 1   
    38    18    22 1   
    39    19    21 2   
    40    20    27 1   
    41    21    47 1   
    42    22    23 ar  
    43    22    28 ar  
    44    23    24 ar  
    45    23    48 1   
    46    24    29 ar  
    47    24    49 1   
    48    25    61 2   
    49    26    32 1   
    50    26    61 1   
    51    27    50 1   
    52    27    51 1   
    53    27    52 1   
    54    28    30 ar  
    55    28    53 1   
    56    29    30 ar  
    57    29    54 1   
    58    30    31 1   
    59    32    33 1   
    60    32    55 1   
    61    32    56 1   
    62    33    57 1   
    63    33    58 1   
    64    33    59 1   
@<TRIPOS>SUBSTRUCTURE
     1 KIS         1 TEMP              0 ****  ****    0 ROOT
