@<TRIPOS>MOLECULE
KIS
   61    64     1     0     0
SMALL
No Charge or Current Charge


@<TRIPOS>ATOM
      1 N3          14.5240    37.6400   -14.9240 nc         1 KIS      -0.613000
      2 C4          13.8970    37.4950   -12.7340 cd         1 KIS      -0.094300
      3 C5          14.6570    38.8420   -14.3750 cd         1 KIS       0.398400
      4 C6          13.6760    39.8250   -12.4890 ca         1 KIS       0.012800
      5 C8          12.3310    40.0410   -12.8520 ca         1 KIS      -0.155500
      6 C10         11.6090    41.1090   -12.2860 ca         1 KIS       0.123600
      7 C15         13.3600    37.0660   -11.3850 c3         1 KIS      -0.034800
      8 C17         12.2380    41.9790   -11.3810 ca         1 KIS      -0.116000
      9 C20         13.5810    41.7710   -11.0210 ca         1 KIS      -0.078000
     10 C21         13.6690    33.4910   -15.6750 c3         1 KIS       0.164600
     11 C22         14.8450    32.6560   -15.1270 c3         1 KIS      -0.108100
     12 C1          14.0510    36.8060   -13.9220 cc         1 KIS       0.179500
     13 N2          14.3950    38.7540   -13.0200 na         1 KIS      -0.089300
     14 O12         13.2380    34.6450   -13.2060 o          1 KIS      -0.510000
     15 O14         13.9020    34.8830   -15.3780 os         1 KIS      -0.414600
     16 C16         14.2960    40.6920   -11.5720 ca         1 KIS      -0.119000
     17 C30          9.2140    36.1070    -9.7210 cc         1 KIS       0.179500
     18 N31          8.4590    36.9520   -11.5730 na         1 KIS      -0.089300
     19 N32          9.8730    35.4680   -10.7600 nc         1 KIS      -0.613000
     20 C33          8.3730    37.0950   -10.1990 cd         1 KIS      -0.094300
     21 C34          9.4590    36.0500   -11.8790 cd         1 KIS       0.398400
     22 C35          8.4620    38.1270   -12.3260 ca         1 KIS       0.012800
     23 C37          7.5000    38.3000   -13.3380 ca         1 KIS      -0.119000
     24 C38          7.4770    39.4810   -14.1000 ca         1 KIS      -0.078000
     25 O39          8.8310    36.4080    -7.3510 o          1 KIS      -0.510000
     26 O40         10.3170    34.8090    -8.0070 os         1 KIS      -0.414600
     27 C41          7.4950    38.0980    -9.4810 c3         1 KIS      -0.034800
     28 C42          9.4100    39.1430   -12.0860 ca         1 KIS      -0.155500
     29 C43          8.4210    40.4930   -13.8550 ca         1 KIS      -0.116000
     30 C44          9.3920    40.3220   -12.8560 ca         1 KIS       0.123600
     31 O35         10.2950    41.3370   -12.6270 os         1 KIS      -0.247200
     32 C45         10.5870    34.4530    -6.6400 c3         1 KIS       0.164600
     33 C46         11.6270    33.3210    -6.6550 c3         1 KIS      -0.108100
     34 H1          14.9160    39.7720   -14.8680 h5         1 KIS       0.062600
     35 H2          11.8490    39.3790   -13.5670 ha         1 KIS       0.142500
     36 H3          13.5460    37.8210   -10.6120 hc         1 KIS       0.061867
     37 H4          12.2790    36.9000   -11.4310 hc         1 KIS       0.061867
     38 H5          13.8310    36.1360   -11.0470 hc         1 KIS       0.061867
     39 H6          11.6820    42.8110   -10.9560 ha         1 KIS       0.139000
     40 H7          14.0660    42.4420   -10.3150 ha         1 KIS       0.129000
     41 H8          12.7180    33.1410   -15.2510 h1         1 KIS       0.051200
     42 H9          13.6200    33.3480   -16.7630 h1         1 KIS       0.051200
     43 H10         14.7270    31.6050   -15.4180 hc         1 KIS       0.046533
     44 H11         15.7970    33.0170   -15.5340 hc         1 KIS       0.046533
     45 H12         14.8920    32.6990   -14.0330 hc         1 KIS       0.046533
     46 H13         15.3330    40.5310   -11.2850 ha         1 KIS       0.136000
     47 H14          9.8190    35.8830   -12.8870 h5         1 KIS       0.062600
     48 H15          6.7640    37.5220   -13.5290 ha         1 KIS       0.136000
     49 H16          6.7260    39.6130   -14.8770 ha         1 KIS       0.129000
     50 H17          6.8740    38.6720   -10.1780 hc         1 KIS       0.061867
     51 H18          6.8160    37.5970    -8.7810 hc         1 KIS       0.061867
     52 H19          8.1010    38.8110    -8.9100 hc         1 KIS       0.061867
     53 H20         10.1480    39.0210   -11.2970 ha         1 KIS       0.142500
     54 H21          8.4020    41.4090   -14.4400 ha         1 KIS       0.139000
     55 H22         10.9880    35.3110    -6.0830 h1         1 KIS       0.051200
     56 H23          9.6740    34.1060    -6.1380 h1         1 KIS       0.051200
     57 H24         11.8670    33.0130    -5.6310 hc         1 KIS       0.046533
     58 H25         11.2400    32.4480    -7.1950 hc         1 KIS       0.046533
     59 H26         12.5520    33.6530    -7.1410 hc         1 KIS       0.046533
     60 C7          13.6960    35.3520   -14.0980 c          1 KIS       0.539600
     61 C36          9.4100    35.8150    -8.2560 c          1 KIS       0.539600
@<TRIPOS>BOND
     1     1     3 2   
     2     1    12 1   
     3     2     7 1   
     4     2    12 2   
     5     2    13 1   
     6     3    13 1   
     7     3    34 1   
     8     4     5 ar  
     9     4    13 1   
    10     4    16 ar  
    11     5     6 ar  
    12     5    35 1   
    13     6     8 ar  
    14     6    31 1   
    15     7    36 1   
    16     7    37 1   
    17     7    38 1   
    18     8     9 ar  
    19     8    39 1   
    20     9    16 ar  
    21     9    40 1   
    22    10    11 1   
    23    10    15 1   
    24    10    41 1   
    25    10    42 1   
    26    11    43 1   
    27    11    44 1   
    28    11    45 1   
    29    12    60 1   
    30    14    60 2   
    31    15    60 1   
    32    16    46 1   
    33    17    19 1   
    34    17    20 2   
    35    17    61 1   
    36    18    20 1   
    37    18    21 1   
    38    18    22 1   
    39    19    21 2   
    40    20    27 1   
    41    21    47 1   
    42    22    23 ar  
    43    22    28 ar  
    44    23    24 ar  
    45    23    48 1   
    46    24    29 ar  
    47    24    49 1   
    48    25    61 2   
    49    26    32 1   
    50    26    61 1   
    51    27    50 1   
    52    27    51 1   
    53    27    52 1   
    54    28    30 ar  
    55    28    53 1   
    56    29    30 ar  
    57    29    54 1   
    58    30    31 1   
    59    32    33 1   
    60    32    55 1   
    61    32    56 1   
    62    33    57 1   
    63    33    58 1   
    64    33    59 1   
@<TRIPOS>SUBSTRUCTURE
     1 KIS         1 TEMP              0 ****  ****    0 ROOT
