@<TRIPOS>MOLECULE
KIT
   82    88     1     0     0
SMALL
abcg2


@<TRIPOS>ATOM
      1 N1          19.1970     3.7670     7.7630 nb         1 KIT      -0.297000
      2 C7          14.2950     9.6360    10.3690 c3         1 KIT       0.167800
      3 C8          14.9000    10.4150    12.5910 c3         1 KIT       0.264900
      4 N2          19.1580     6.0860     8.3310 nb         1 KIT      -0.227000
      5 C9          16.3480    10.6190    12.5690 c1         1 KIT      -0.105100
      6 O1          19.9090     8.1910    13.2670 os         1 KIT      -0.437000
      7 C1          19.7500     4.9250     8.1140 ca         1 KIT       0.196900
      8 O5          18.8170     9.6380    16.2880 oh         1 KIT      -0.698000
      9 C5          17.1840     8.3470     8.7400 c5         1 KIT       0.268300
     10 C6          15.6220     9.8070     9.6600 c5         1 KIT       0.121300
     11 N3          15.7830     5.1530     7.7360 nc         1 KIT      -0.552100
     12 C4          15.6960     6.4100     8.0550 cd         1 KIT       0.395700
     13 O4          19.5400     6.9860    15.9530 oh         1 KIT      -0.701000
     14 C3          17.1250     4.8780     7.7930 ca         1 KIT      -0.094600
     15 C2          17.8410     6.0050     8.1590 ca         1 KIT       0.143500
     16 N4          16.9080     6.9910     8.3160 na         1 KIT      -0.303300
     17 C           17.8720     3.7030     7.5920 ca         1 KIT       0.459900
     18 O           16.4050     8.6400     9.8670 os         1 KIT      -0.443000
     19 C10         17.5310    10.8300    12.6510 cg         1 KIT      -0.109200
     20 C11         18.8990    11.1890    12.7120 cc         1 KIT       0.464700
     21 C12         20.6860    12.2940    12.4360 ca         1 KIT      -0.103600
     22 C13         21.7220    13.1930    12.1100 ca         1 KIT       0.455900
     23 C14         23.1190    11.8760    13.3750 ca         1 KIT       0.190900
     24 C15         21.0240    11.2290    13.2530 ca         1 KIT       0.150500
     25 C16         19.8430     9.2670    14.1630 c5         1 KIT       0.316300
     26 C17         18.9930     7.1600    13.6490 c5         1 KIT       0.153300
     27 C18         17.8640     7.1540    12.6240 c3         1 KIT       0.070000
     28 C19         16.5960     5.1040    12.1180 c          1 KIT       0.598100
     29 C20         15.2130     4.5120    12.2780 c3         1 KIT      -0.187400
     30 C21         14.2530     5.1730    11.2770 c3         1 KIT       0.098000
     31 C22         13.0730     7.2010    12.0250 c          1 KIT       0.592100
     32 C23         13.2250     8.6920    12.3060 c3         1 KIT       0.079800
     33 C24         18.5740     7.4990    15.0730 c5         1 KIT       0.115300
     34 C25         18.6180     9.0300    15.0450 c5         1 KIT       0.081300
     35 C26         15.5010     9.9210     8.1350 c5         1 KIT       0.146300
     36 C27         16.8740     9.4280     7.6830 c5         1 KIT       0.139300
     37 N10         19.8700    10.5200    13.4400 na         1 KIT      -0.273300
     38 N11         16.8250     6.1900    12.8860 ns         1 KIT      -0.505900
     39 N12         14.1350     6.5980    11.4750 ns         1 KIT      -0.504900
     40 N5          14.4310     9.3000    11.7800 n3         1 KIT      -0.737600
     41 N6          19.3650    12.2520    12.1090 nd         1 KIT      -0.521100
     42 N8          22.9390    12.9460    12.6050 nb         1 KIT      -0.304000
     43 N9          22.2310    10.9710    13.7490 nb         1 KIT      -0.216000
     44 O2          17.3970     4.6810    11.2990 o          1 KIT      -0.584100
     45 O6          15.2280    11.2040     7.6620 oh         1 KIT      -0.672000
     46 O7          17.7750    10.4950     7.7890 oh         1 KIT      -0.682000
     47 H13         13.7000    10.5530    10.2300 h1         1 KIT       0.043200
     48 H12         13.7440     8.8300     9.8770 h1         1 KIT       0.043200
     49 H15         14.4160    11.3630    12.3120 h1         1 KIT       0.055200
     50 H14         14.6290    10.2340    13.6330 h1         1 KIT       0.055200
     51 H10         20.8280     4.9070     8.2380 h5         1 KIT       0.047100
     52 H30         17.9630     9.7680    16.7120 ho         1 KIT       0.514000
     53 H           18.2500     8.3610     8.9890 h2         1 KIT       0.118700
     54 H1          16.1550    10.6880    10.0350 h1         1 KIT       0.094700
     55 H11         14.7680     6.9580     8.1270 h5         1 KIT       0.059800
     56 H29         19.4910     7.4900    16.7740 ho         1 KIT       0.519000
     57 H9          17.8820     1.7150     7.1670 hn         1 KIT       0.505500
     58 H8          16.3190     2.4460     7.1670 hn         1 KIT       0.505500
     59 H18         24.1300    11.7320    13.7420 h5         1 KIT       0.049100
     60 H2          20.7390     9.2920    14.7910 h2         1 KIT       0.124700
     61 H3          19.5130     6.1990    13.6230 h1         1 KIT       0.108700
     62 H20         18.2910     6.9510    11.6420 h1         1 KIT       0.075200
     63 H19         17.4000     8.1390    12.5690 h1         1 KIT       0.075200
     64 H22         14.8310     4.6460    13.2930 hc         1 KIT       0.071700
     65 H23         15.2520     3.4420    12.0720 hc         1 KIT       0.071700
     66 H24         13.2660     4.7250    11.3760 h1         1 KIT       0.074200
     67 H25         14.5970     4.9770    10.2600 h1         1 KIT       0.074200
     68 H27         13.2300     8.7730    13.3960 h1         1 KIT       0.065200
     69 H28         12.3050     9.1910    11.9720 h1         1 KIT       0.065200
     70 H4          17.5710     7.1250    15.3120 h1         1 KIT       0.052700
     71 H5          17.7080     9.3950    14.5620 h1         1 KIT       0.060700
     72 H6          14.7480     9.2000     7.7850 h1         1 KIT       0.037700
     73 H7          16.8580     9.0010     6.6740 h1         1 KIT       0.071700
     74 H21         16.0820     6.4840    13.5000 hn         1 KIT       0.303500
     75 H26         14.9330     7.1850    11.2730 hn         1 KIT       0.347500
     76 H17         22.2940    14.8830    11.1330 hn         1 KIT       0.509000
     77 H16         20.6250    14.4760    10.9600 hn         1 KIT       0.509000
     78 H31         14.2860    11.3710     7.7580 ho         1 KIT       0.505000
     79 H32         18.6330    10.2070     7.4600 ho         1 KIT       0.515000
     80 N           17.3170     2.5440     7.2350 nv         1 KIT      -1.063900
     81 N7          21.5300    14.2620    11.3410 nv         1 KIT      -1.061900
     82 O3          12.0360     6.6310    12.3350 o          1 KIT      -0.610100
@<TRIPOS>BOND
     1     1     7 ar  
     2     1    17 ar  
     3     2    10 1   
     4     2    40 1   
     5     2    47 1   
     6     2    48 1   
     7     3     5 1   
     8     3    40 1   
     9     3    49 1   
    10     3    50 1   
    11     4     7 ar  
    12     4    15 ar  
    13     5    19 3   
    14     6    25 1   
    15     6    26 1   
    16     7    51 1   
    17     8    34 1   
    18     8    52 1   
    19     9    16 1   
    20     9    18 1   
    21     9    36 1   
    22     9    53 1   
    23    10    18 1   
    24    10    35 1   
    25    10    54 1   
    26    11    12 2   
    27    11    14 1   
    28    12    16 1   
    29    12    55 1   
    30    13    33 1   
    31    13    56 1   
    32    14    15 ar  
    33    14    17 ar  
    34    15    16 1   
    35    17    80 1   
    36    19    20 1   
    37    20    37 1   
    38    20    41 2   
    39    21    22 ar  
    40    21    24 ar  
    41    21    41 1   
    42    22    42 ar  
    43    22    81 1   
    44    23    42 ar  
    45    23    43 ar  
    46    23    59 1   
    47    24    37 1   
    48    24    43 ar  
    49    25    34 1   
    50    25    37 1   
    51    25    60 1   
    52    26    27 1   
    53    26    33 1   
    54    26    61 1   
    55    27    38 1   
    56    27    62 1   
    57    27    63 1   
    58    28    29 1   
    59    28    38 1   
    60    28    44 2   
    61    29    30 1   
    62    29    64 1   
    63    29    65 1   
    64    30    39 1   
    65    30    66 1   
    66    30    67 1   
    67    31    32 1   
    68    31    39 1   
    69    31    82 2   
    70    32    40 1   
    71    32    68 1   
    72    32    69 1   
    73    33    34 1   
    74    33    70 1   
    75    34    71 1   
    76    35    36 1   
    77    35    45 1   
    78    35    72 1   
    79    36    46 1   
    80    36    73 1   
    81    38    74 1   
    82    39    75 1   
    83    45    78 1   
    84    46    79 1   
    85    57    80 1   
    86    58    80 1   
    87    76    81 1   
    88    77    81 1   
@<TRIPOS>SUBSTRUCTURE
     1 KIT         1 TEMP              0 ****  ****    0 ROOT
