@<TRIPOS>MOLECULE
KIT
   82    88     1     0     0
SMALL
No Charge or Current Charge


@<TRIPOS>ATOM
      1 N1          18.0040     2.7710     6.4690 nb         1 KIT      -0.297000
      2 C7          14.7400     9.4970    10.3690 c3         1 KIT       0.167800
      3 C8          14.8130    10.4530    12.6820 c3         1 KIT       0.264900
      4 N2          18.6300     4.7800     7.6640 nb         1 KIT      -0.227000
      5 C9          16.2140    10.8930    12.7440 c1         1 KIT      -0.105100
      6 O1          20.0850     8.7040    13.4710 os         1 KIT      -0.437000
      7 C1          18.8970     3.5970     7.0630 ca         1 KIT       0.196900
      8 O5          18.4940     9.8170    16.5840 oh         1 KIT      -0.698000
      9 C5          17.3540     7.3820     8.9070 c5         1 KIT       0.268300
     10 C6          16.1600     9.2050     9.8170 c5         1 KIT       0.121300
     11 N3          15.0930     4.9770     7.2070 nc         1 KIT      -0.552100
     12 C4          15.3710     6.1110     7.8760 cd         1 KIT       0.395700
     13 O4          19.7590     7.4210    16.1970 oh         1 KIT      -0.701000
     14 C3          16.3520     4.3990     7.0890 ca         1 KIT      -0.094600
     15 C2          17.3370     5.1610     7.6650 ca         1 KIT       0.143500
     16 N4          16.7350     6.2770     8.1810 na         1 KIT      -0.303300
     17 C           16.7270     3.1810     6.4820 ca         1 KIT       0.459900
     18 O           16.4440     7.7940     9.9540 os         1 KIT      -0.443000
     19 C10         17.3700    11.2540    12.8550 cg         1 KIT      -0.109200
     20 C11         18.7080    11.7140    13.0170 cc         1 KIT       0.464700
     21 C12         20.4360    12.9800    12.8560 ca         1 KIT      -0.103600
     22 C13         21.3700    14.0000    12.5860 ca         1 KIT       0.455900
     23 C14         22.9570    12.7860    13.6980 ca         1 KIT       0.190900
     24 C15         20.8570    11.8850    13.5660 ca         1 KIT       0.150500
     25 C16         19.7710     9.7760    14.3950 c5         1 KIT       0.316300
     26 C17         19.2320     7.5640    13.7500 c5         1 KIT       0.153300
     27 C18         18.1020     7.5480    12.6920 c3         1 KIT       0.070000
     28 C19         16.9450     5.3670    12.2080 c          1 KIT       0.598100
     29 C20         15.6230     4.6280    12.3980 c3         1 KIT      -0.187400
     30 C21         14.6220     5.0310    11.2960 c3         1 KIT       0.098000
     31 C22         13.2120     7.0170    11.9790 c          1 KIT       0.592100
     32 C23         13.2720     8.5610    12.1690 c3         1 KIT       0.079800
     33 C24         18.7610     7.7690    15.2290 c5         1 KIT       0.115300
     34 C25         18.5250     9.3040    15.2360 c5         1 KIT       0.081300
     35 C26         16.3550     9.4790     8.2970 c5         1 KIT       0.146300
     36 C27         17.6580     8.6630     8.0540 c5         1 KIT       0.139300
     37 N10         19.7670    11.0660    13.6840 na         1 KIT      -0.273300
     38 N11         17.0460     6.5500    12.9030 ns         1 KIT      -0.505900
     39 N12         14.3150     6.4630    11.3680 ns         1 KIT      -0.504900
     40 N5          14.5710     9.2490    11.8350 n3         1 KIT      -0.737600
     41 N6          19.0900    12.8940    12.4990 nd         1 KIT      -0.521100
     42 N8          22.6410    13.9060    13.0050 nb         1 KIT      -0.304000
     43 N9          22.1260    11.7610    14.0050 nb         1 KIT      -0.216000
     44 O2          17.8370     4.9480    11.4860 o          1 KIT      -0.584100
     45 O6          16.5440    10.8670     7.9770 oh         1 KIT      -0.672000
     46 O7          18.7990     9.4020     8.5240 oh         1 KIT      -0.682000
     47 H13         14.4760    10.5360    10.1290 h1         1 KIT       0.043200
     48 H12         14.0460     8.8660     9.7980 h1         1 KIT       0.043200
     49 H15         14.1950    11.2930    12.3380 h1         1 KIT       0.055200
     50 H14         14.5120    10.2450    13.7180 h1         1 KIT       0.055200
     51 H10         19.9380     3.2760     7.0580 h5         1 KIT       0.047100
     52 H30         18.1120    10.7270    16.5540 ho         1 KIT       0.514000
     53 H           18.2800     6.9840     9.3410 h2         1 KIT       0.118700
     54 H1          16.9000     9.7660    10.4000 h1         1 KIT       0.094700
     55 H11         14.6390     6.8510     8.1770 h5         1 KIT       0.059800
     56 H29         19.6240     8.0870    16.9170 ho         1 KIT       0.519000
     57 H9          16.0960     1.3830     5.7410 hn         1 KIT       0.505500
     58 H8          14.8430     2.5320     6.0730 hn         1 KIT       0.505500
     59 H18         23.9860    12.6990    14.0450 h5         1 KIT       0.049100
     60 H2          20.6110     9.8530    15.0980 h2         1 KIT       0.124700
     61 H3          19.8130     6.6370    13.6440 h1         1 KIT       0.108700
     62 H20         18.5590     7.3860    11.7080 h1         1 KIT       0.075200
     63 H19         17.6230     8.5300    12.6540 h1         1 KIT       0.075200
     64 H22         15.1750     4.8940    13.3620 hc         1 KIT       0.071700
     65 H23         15.7960     3.5480    12.3360 hc         1 KIT       0.071700
     66 H24         13.6990     4.4460    11.4010 h1         1 KIT       0.074200
     67 H25         15.0510     4.8060    10.3100 h1         1 KIT       0.074200
     68 H27         13.0300     8.7160    13.2280 h1         1 KIT       0.065200
     69 H28         12.4490     8.9970    11.5890 h1         1 KIT       0.065200
     70 H4          17.8300     7.2230    15.4360 h1         1 KIT       0.052700
     71 H5          17.5760     9.5160    14.7330 h1         1 KIT       0.060700
     72 H6          15.5230     9.0590     7.7130 h1         1 KIT       0.037700
     73 H7          17.7780     8.4120     6.9910 h1         1 KIT       0.071700
     74 H21         16.2380     6.8170    13.4530 hn         1 KIT       0.303500
     75 H26         15.0320     7.1350    11.0940 hn         1 KIT       0.347500
     76 H17         21.8090    15.6610    11.4810 hn         1 KIT       0.509000
     77 H16         20.1700    15.1140    11.3790 hn         1 KIT       0.509000
     78 H31         15.6600    11.2460     7.7600 ho         1 KIT       0.505000
     79 H32         18.5330    10.3460     8.3980 ho         1 KIT       0.515000
     80 N           15.8270     2.3530     5.8870 nv         1 KIT      -1.063900
     81 N7          21.0500    15.1220    11.8890 nv         1 KIT      -1.061900
     82 O3          12.2750     6.3340    12.3740 o          1 KIT      -0.610100
@<TRIPOS>BOND
     1     1     7 ar  
     2     1    17 ar  
     3     2    10 1   
     4     2    40 1   
     5     2    47 1   
     6     2    48 1   
     7     3     5 1   
     8     3    40 1   
     9     3    49 1   
    10     3    50 1   
    11     4     7 ar  
    12     4    15 ar  
    13     5    19 3   
    14     6    25 1   
    15     6    26 1   
    16     7    51 1   
    17     8    34 1   
    18     8    52 1   
    19     9    16 1   
    20     9    18 1   
    21     9    36 1   
    22     9    53 1   
    23    10    18 1   
    24    10    35 1   
    25    10    54 1   
    26    11    12 2   
    27    11    14 1   
    28    12    16 1   
    29    12    55 1   
    30    13    33 1   
    31    13    56 1   
    32    14    15 ar  
    33    14    17 ar  
    34    15    16 1   
    35    17    80 1   
    36    19    20 1   
    37    20    37 1   
    38    20    41 2   
    39    21    22 ar  
    40    21    24 ar  
    41    21    41 1   
    42    22    42 ar  
    43    22    81 1   
    44    23    42 ar  
    45    23    43 ar  
    46    23    59 1   
    47    24    37 1   
    48    24    43 ar  
    49    25    34 1   
    50    25    37 1   
    51    25    60 1   
    52    26    27 1   
    53    26    33 1   
    54    26    61 1   
    55    27    38 1   
    56    27    62 1   
    57    27    63 1   
    58    28    29 1   
    59    28    38 1   
    60    28    44 2   
    61    29    30 1   
    62    29    64 1   
    63    29    65 1   
    64    30    39 1   
    65    30    66 1   
    66    30    67 1   
    67    31    32 1   
    68    31    39 1   
    69    31    82 2   
    70    32    40 1   
    71    32    68 1   
    72    32    69 1   
    73    33    34 1   
    74    33    70 1   
    75    34    71 1   
    76    35    36 1   
    77    35    45 1   
    78    35    72 1   
    79    36    46 1   
    80    36    73 1   
    81    38    74 1   
    82    39    75 1   
    83    45    78 1   
    84    46    79 1   
    85    57    80 1   
    86    58    80 1   
    87    76    81 1   
    88    77    81 1   
@<TRIPOS>SUBSTRUCTURE
     1 KIT         1 TEMP              0 ****  ****    0 ROOT
