@<TRIPOS>MOLECULE
KIU
   32    33     1     0     0
SMALL
abcg2


@<TRIPOS>ATOM
      1 OAA          3.3620    -3.5780    -0.1300 o          1 KIU      -0.743000
      2 CAP          4.0130    -2.5260     0.0220 c          1 KIU       0.715100
      3 OAC          5.2450    -2.4300     0.1830 o          1 KIU      -0.743000
      4 CAT          3.2230    -1.2210     0.0060 ca         1 KIU      -0.144600
      5 CAJ          1.8460    -1.2430    -0.1610 ca         1 KIU      -0.150500
      6 CAM          3.8690     0.0060     0.1490 ca         1 KIU      -0.075000
      7 CAU          3.1560     1.1960     0.1240 ca         1 KIU      -0.144600
      8 CAQ          3.8690     2.5370     0.2730 c          1 KIU       0.715100
      9 OAD          3.1580     3.5590     0.2090 o          1 KIU      -0.743000
     10 OAB          5.1020     2.4990     0.4430 o          1 KIU      -0.743000
     11 CAK          1.7710     1.1630    -0.0440 ca         1 KIU      -0.150500
     12 CAS          1.1190    -0.0550    -0.1850 ca         1 KIU       0.032100
     13 OAO         -0.2220    -0.1850    -0.3520 os         1 KIU      -0.368100
     14 CAN         -1.0000     0.9920    -0.4760 c3         1 KIU       0.207900
     15 CAR         -2.4100     0.5560    -0.7390 ca         1 KIU      -0.063300
     16 CAL         -3.2670     0.2940     0.3210 ca         1 KIU      -0.025000
     17 CAH         -2.8600     0.3680    -2.0420 ca         1 KIU      -0.045000
     18 CAG         -4.1520    -0.0710    -2.2910 ca         1 KIU      -0.136000
     19 CAI         -5.0150    -0.3350    -1.2400 ca         1 KIU      -0.064000
     20 CAV         -4.5550    -0.1460     0.0550 ca         1 KIU      -0.189200
     21 NAW         -5.4530    -0.4150     1.1700 no         1 KIU       0.697200
     22 OAF         -5.0500    -0.2130     2.2900 o          1 KIU      -0.418000
     23 OAE         -6.5610    -0.8270     0.9170 o          1 KIU      -0.418000
     24 H2           1.3280    -2.1870    -0.2790 ha         1 KIU       0.111000
     25 H3           4.9420     0.0300     0.2730 ha         1 KIU       0.146000
     26 H5           1.2300     2.1000    -0.0580 ha         1 KIU       0.111000
     27 H6          -0.9480     1.5930     0.4390 h1         1 KIU       0.044200
     28 H7          -0.6360     1.6110    -1.3020 h1         1 KIU       0.044200
     29 H8          -2.9270     0.4400     1.3370 ha         1 KIU       0.159000
     30 H9          -2.1950     0.5720    -2.8730 ha         1 KIU       0.132000
     31 H10         -4.4930    -0.2090    -3.3070 ha         1 KIU       0.114000
     32 H11         -6.0210    -0.6740    -1.4370 ha         1 KIU       0.133000
@<TRIPOS>BOND
     1     1     2 1   
     2     2     3 1   
     3     2     4 1   
     4     4     5 ar  
     5     4     6 ar  
     6     5    12 ar  
     7     5    24 1   
     8     6     7 ar  
     9     6    25 1   
    10     7     8 1   
    11     7    11 ar  
    12     8     9 1   
    13     8    10 1   
    14    11    12 ar  
    15    11    26 1   
    16    12    13 1   
    17    13    14 1   
    18    14    15 1   
    19    14    27 1   
    20    14    28 1   
    21    15    16 ar  
    22    15    17 ar  
    23    16    20 ar  
    24    16    29 1   
    25    17    18 ar  
    26    17    30 1   
    27    18    19 ar  
    28    18    31 1   
    29    19    20 ar  
    30    19    32 1   
    31    20    21 1   
    32    21    22 1   
    33    21    23 1   
@<TRIPOS>SUBSTRUCTURE
     1 KIU         1 TEMP              0 ****  ****    0 ROOT
