@<TRIPOS>MOLECULE
KIV
   15    14     1     0     0
SMALL
No Charge or Current Charge


@<TRIPOS>ATOM
      1 O1           0.0550    -0.3250    -2.4290 o          1 KIV      -0.702000
      2 C1           0.1100     0.3900    -1.4300 c          1 KIV       0.648000
      3 O2           0.5430     1.5400    -1.4550 o          1 KIV      -0.702000
      4 C2          -0.4320    -0.2050    -0.0240 c          1 KIV       0.436100
      5 C3           0.4270     0.0740     1.2360 c3         1 KIV      -0.177700
      6 C4          -0.3360     0.9540     2.2540 c3         1 KIV      -0.069100
      7 C5           0.9440    -1.2390     1.8690 c3         1 KIV      -0.069100
      8 O3          -1.4800    -0.8560     0.0540 o          1 KIV      -0.568100
      9 HC31         1.3050     0.6440     0.9110 hc         1 KIV       0.076700
     10 HC41         0.3060     1.2030     3.1080 hc         1 KIV       0.021367
     11 HC42        -0.6590     1.8920     1.7870 hc         1 KIV       0.021367
     12 HC43        -1.2240     0.4350     2.6330 hc         1 KIV       0.021367
     13 HC51         0.1130    -1.8540     2.2330 hc         1 KIV       0.021367
     14 HC52         1.5090    -1.8240     1.1330 hc         1 KIV       0.021367
     15 HC53         1.6090    -1.0250     2.7150 hc         1 KIV       0.021367
@<TRIPOS>BOND
     1     1     2 1   
     2     2     3 1   
     3     2     4 1   
     4     4     5 1   
     5     4     8 2   
     6     5     6 1   
     7     5     7 1   
     8     5     9 1   
     9     6    10 1   
    10     6    11 1   
    11     6    12 1   
    12     7    13 1   
    13     7    14 1   
    14     7    15 1   
@<TRIPOS>SUBSTRUCTURE
     1 KIV         1 TEMP              0 ****  ****    0 ROOT
