@<TRIPOS>MOLECULE
KIV
   15    14     1     0     0
SMALL
bcc


@<TRIPOS>ATOM
      1 O1          -0.2960    -0.7570    -2.2000 o          1 KIV      -0.807300
      2 C1           0.2890    -0.0920    -1.3340 c          1 KIV       0.858600
      3 O2           1.4080     0.4480    -1.3920 o          1 KIV      -0.807300
      4 C2          -0.4840     0.1170    -0.0040 c          1 KIV       0.436100
      5 C3           0.3250     0.3260     1.2560 c3         1 KIV      -0.177700
      6 C4          -0.5290     0.7670     2.4340 c3         1 KIV      -0.069100
      7 C5           1.0870    -0.9670     1.5730 c3         1 KIV      -0.069100
      8 O3          -1.6950     0.1080     0.0020 o          1 KIV      -0.568100
      9 HC31         1.0690     1.0970     1.0380 hc         1 KIV       0.076700
     10 HC41         0.0970     0.9190     3.3130 hc         1 KIV       0.021367
     11 HC42        -1.0490     1.7040     2.2320 hc         1 KIV       0.021367
     12 HC43        -1.2790     0.0170     2.6900 hc         1 KIV       0.021367
     13 HC51         0.3990    -1.7920     1.7680 hc         1 KIV       0.021367
     14 HC52         1.7470    -1.2600     0.7570 hc         1 KIV       0.021367
     15 HC53         1.7010    -0.8300     2.4630 hc         1 KIV       0.021367
@<TRIPOS>BOND
     1     1     2 1   
     2     2     3 1   
     3     2     4 1   
     4     4     5 1   
     5     4     8 2   
     6     5     6 1   
     7     5     7 1   
     8     5     9 1   
     9     6    10 1   
    10     6    11 1   
    11     6    12 1   
    12     7    13 1   
    13     7    14 1   
    14     7    15 1   
@<TRIPOS>SUBSTRUCTURE
     1 KIV         1 TEMP              0 ****  ****    0 ROOT
