@<TRIPOS>MOLECULE
KIW
   33    34     1     0     0
SMALL
bcc


@<TRIPOS>ATOM
      1 OAA         -5.2450    -2.4330    -0.5950 o          1 KIW      -0.850550
      2 CAP         -4.0250    -2.5420    -0.3640 c          1 KIW       0.924700
      3 OAC         -3.3880    -3.6070    -0.2370 o          1 KIW      -0.850550
      4 CAT         -3.2360    -1.2460    -0.2190 ca         1 KIW      -0.146600
      5 CAJ         -1.8690    -1.2860     0.0160 ca         1 KIW      -0.164000
      6 CAM         -3.8720    -0.0090    -0.3150 ca         1 KIW      -0.091000
      7 CAU         -3.1530     1.1700    -0.1670 ca         1 KIW      -0.146600
      8 CAQ         -3.8530     2.5220    -0.2540 c          1 KIW       0.924700
      9 OAD         -5.0770     2.5080    -0.4870 o          1 KIW      -0.850550
     10 OAB         -3.1440     3.5350    -0.0850 o          1 KIW      -0.850550
     11 CAK         -1.7820     1.1140     0.0760 ca         1 KIW      -0.164000
     12 CAS         -1.1210    -0.1120     0.1600 ca         1 KIW       0.047600
     13 NAO          0.2500    -0.2110     0.3530 nu         1 KIW      -0.752600
     14 CAN          1.0040     0.9180     0.8430 c3         1 KIW       0.244100
     15 CAR          2.4650     0.5720     0.9340 ca         1 KIW      -0.075300
     16 CAL          3.1310     0.0770    -0.1820 ca         1 KIW      -0.039000
     17 CAH          3.1710     0.7440     2.1190 ca         1 KIW      -0.089000
     18 CAG          4.5240     0.4410     2.1950 ca         1 KIW      -0.154000
     19 CAI          5.1960    -0.0470     1.0890 ca         1 KIW      -0.088000
     20 CAV          4.4800    -0.2220    -0.0890 ca         1 KIW      -0.188200
     21 NAW          5.1700    -0.7360    -1.2640 no         1 KIW       0.315200
     22 OAF          4.5240    -0.9210    -2.2680 o          1 KIW      -0.224000
     23 OAE          6.3560    -0.9530    -1.1770 o          1 KIW      -0.224000
     24 H2          -1.3710    -2.2460     0.0910 ha         1 KIW       0.120500
     25 H3          -4.9370     0.0330    -0.4940 ha         1 KIW       0.163000
     26 H5          -1.2450     2.0450     0.2000 ha         1 KIW       0.120500
     27 H6           0.5310    -1.0870     0.7690 hn         1 KIW       0.375800
     28 H7           0.8880     1.7530     0.1460 h1         1 KIW       0.047700
     29 H8           0.6510     1.2770     1.8190 h1         1 KIW       0.047700
     30 H9           2.5910    -0.0670    -1.1080 ha         1 KIW       0.195000
     31 H10          2.6590     1.1190     2.9960 ha         1 KIW       0.142000
     32 H11          5.0580     0.5800     3.1250 ha         1 KIW       0.129000
     33 H12          6.2470    -0.2860     1.1510 ha         1 KIW       0.152000
@<TRIPOS>BOND
     1     1     2 1   
     2     2     3 1   
     3     2     4 1   
     4     4     5 ar  
     5     4     6 ar  
     6     5    12 ar  
     7     5    24 1   
     8     6     7 ar  
     9     6    25 1   
    10     7     8 1   
    11     7    11 ar  
    12     8     9 1   
    13     8    10 1   
    14    11    12 ar  
    15    11    26 1   
    16    12    13 1   
    17    13    14 1   
    18    13    27 1   
    19    14    15 1   
    20    14    28 1   
    21    14    29 1   
    22    15    16 ar  
    23    15    17 ar  
    24    16    20 ar  
    25    16    30 1   
    26    17    18 ar  
    27    17    31 1   
    28    18    19 ar  
    29    18    32 1   
    30    19    20 ar  
    31    19    33 1   
    32    20    21 1   
    33    21    22 1   
    34    21    23 1   
@<TRIPOS>SUBSTRUCTURE
     1 KIW         1 TEMP              0 ****  ****    0 ROOT
