@<TRIPOS>MOLECULE
KIW
   33    34     1     0     0
SMALL
No Charge or Current Charge


@<TRIPOS>ATOM
      1 OAA         -5.2790    -2.5540    -0.2370 o          1 KIW      -0.745250
      2 CAP         -4.0690    -2.5830    -0.0560 c          1 KIW       0.714100
      3 OAC         -3.4540    -3.6280     0.1010 o          1 KIW      -0.745250
      4 CAT         -3.3030    -1.2670    -0.0260 ca         1 KIW      -0.146600
      5 CAJ         -1.9030    -1.2440     0.1780 ca         1 KIW      -0.146000
      6 CAM         -3.9780    -0.0360    -0.2020 ca         1 KIW      -0.073000
      7 CAU         -3.2840     1.1970    -0.1770 ca         1 KIW      -0.146600
      8 CAQ         -4.0320     2.5110    -0.3690 c          1 KIW       0.714100
      9 OAD         -5.2410     2.4770    -0.5490 o          1 KIW      -0.745250
     10 OAB         -3.4010     3.5580    -0.3380 o          1 KIW      -0.745250
     11 CAK         -1.8840     1.1800     0.0300 ca         1 KIW      -0.146000
     12 CAS         -1.1950    -0.0340     0.2070 ca         1 KIW       0.186000
     13 NAO          0.1880    -0.0670     0.4120 nu         1 KIW      -0.946200
     14 CAN          1.0950     1.0770     0.5960 c3         1 KIW       0.244100
     15 CAR          2.5230     0.5930     0.8060 ca         1 KIW      -0.075300
     16 CAL          3.3360     0.2860    -0.3030 ca         1 KIW      -0.021000
     17 CAH          3.0400     0.4490     2.1080 ca         1 KIW      -0.071000
     18 CAG          4.3580     0.0050     2.2990 ca         1 KIW      -0.136000
     19 CAI          5.1710    -0.2990     1.1950 ca         1 KIW      -0.070000
     20 CAV          4.6670    -0.1620    -0.1200 ca         1 KIW      -0.188200
     21 NAW          5.5260    -0.4860    -1.3050 no         1 KIW       0.695200
     22 OAF          5.0430    -0.3430    -2.4360 o          1 KIW      -0.414000
     23 OAE          6.6830    -0.8800    -1.1010 o          1 KIW      -0.414000
     24 H2          -1.3600    -2.1760     0.3160 ha         1 KIW       0.102500
     25 H3          -5.0540    -0.0380    -0.3600 ha         1 KIW       0.145000
     26 H5          -1.3360     2.1170     0.0500 ha         1 KIW       0.102500
     27 H6           0.6000    -0.9920     0.5360 hn         1 KIW       0.431000
     28 H7           1.0620     1.7330    -0.2860 h1         1 KIW       0.047700
     29 H8           0.7790     1.6740     1.4630 h1         1 KIW       0.047700
     30 H9           2.9210     0.3970    -1.3040 ha         1 KIW       0.177000
     31 H10          2.4180     0.6800     2.9700 ha         1 KIW       0.124000
     32 H11          4.7510    -0.1040     3.3080 ha         1 KIW       0.111000
     33 H12          6.1900    -0.6420     1.3700 ha         1 KIW       0.134000
@<TRIPOS>BOND
     1     1     2 1   
     2     2     3 1   
     3     2     4 1   
     4     4     5 ar  
     5     4     6 ar  
     6     5    12 ar  
     7     5    24 1   
     8     6     7 ar  
     9     6    25 1   
    10     7     8 1   
    11     7    11 ar  
    12     8     9 1   
    13     8    10 1   
    14    11    12 ar  
    15    11    26 1   
    16    12    13 1   
    17    13    14 1   
    18    13    27 1   
    19    14    15 1   
    20    14    28 1   
    21    14    29 1   
    22    15    16 ar  
    23    15    17 ar  
    24    16    20 ar  
    25    16    30 1   
    26    17    18 ar  
    27    17    31 1   
    28    18    19 ar  
    29    18    32 1   
    30    19    20 ar  
    31    19    33 1   
    32    20    21 1   
    33    21    22 1   
    34    21    23 1   
@<TRIPOS>SUBSTRUCTURE
     1 KIW         1 TEMP              0 ****  ****    0 ROOT
