@<TRIPOS>MOLECULE
KIY
   42    45     1     0     0
SMALL
abcg2


@<TRIPOS>ATOM
      1 C1          99.0820    -6.4420    12.6220 cx         1 KIY      -0.163700
      2 C2          99.2220    -7.9270    12.7670 cx         1 KIY      -0.123900
      3 C3         100.0970    -7.1840    11.8070 cx         1 KIY      -0.123900
      4 C4          97.9180    -5.8100    11.9190 c3         1 KIY       0.196600
      5 O5          96.8700    -5.4580    12.8190 os         1 KIY      -0.348100
      6 C6          95.8780    -6.3080    13.1160 ca         1 KIY       0.185100
      7 C7          95.7020    -7.5650    12.5840 ca         1 KIY      -0.215000
      8 C8          93.8570    -6.5740    14.4110 ca         1 KIY      -0.038000
      9 C9          94.9250    -5.8100    14.0320 ca         1 KIY      -0.163000
     10 C10         93.6660    -7.8800    13.9100 ca         1 KIY      -0.208000
     11 C11         94.5940    -8.3530    12.9520 ca         1 KIY       0.097000
     12 C12         93.3830   -10.2410    12.6290 ca         1 KIY       0.196300
     13 N13         92.4550    -9.9120    13.5340 nb         1 KIY      -0.316000
     14 N14         94.4530    -9.5510    12.3280 nb         1 KIY      -0.235000
     15 C15         92.5860    -8.7840    14.2210 ca         1 KIY       0.428900
     16 N16         91.6590    -8.5760    15.1690 nh         1 KIY      -0.786300
     17 C17         90.5430    -9.5130    15.3240 c5         1 KIY       0.227800
     18 C18         89.7090    -8.8940    16.4340 c5         1 KIY      -0.097900
     19 C19         90.7570    -8.2150    17.3040 c5         1 KIY      -0.097900
     20 C20         91.7150    -7.6260    16.2760 c5         1 KIY       0.227800
     21 C21         93.1560   -11.5390    11.9160 c3         1 KIY      -0.133400
     22 H22         99.4800    -5.8440    13.4360 hc         1 KIY       0.088700
     23 H23         99.6630    -8.3040    13.6800 hc         1 KIY       0.074700
     24 H24         98.4510    -8.5630    12.3530 hc         1 KIY       0.074700
     25 H26         99.9040    -7.3100    10.7480 hc         1 KIY       0.074700
     26 H25        101.1420    -7.0480    12.0530 hc         1 KIY       0.074700
     27 H27         98.2280    -4.8620    11.4770 h1         1 KIY       0.057700
     28 H28         97.5550    -6.4390    11.1010 h1         1 KIY       0.057700
     29 H29         96.3770    -7.9920    11.8560 ha         1 KIY       0.136000
     30 H30         93.1500    -6.1260    15.0890 ha         1 KIY       0.111000
     31 H31         95.0420    -4.8090    14.4260 ha         1 KIY       0.127000
     32 H33         89.9960    -9.6230    14.3880 h1         1 KIY       0.056200
     33 H32         90.9100   -10.5030    15.6090 h1         1 KIY       0.056200
     34 H35         89.0190    -8.1520    16.0240 hc         1 KIY       0.056200
     35 H34         89.1200    -9.6400    16.9660 hc         1 KIY       0.056200
     36 H37         90.3510    -7.4500    17.9640 hc         1 KIY       0.056200
     37 H36         91.2740    -8.9530    17.9220 hc         1 KIY       0.056200
     38 H38         92.7290    -7.5300    16.6650 h1         1 KIY       0.056200
     39 H39         91.3710    -6.6350    15.9660 h1         1 KIY       0.056200
     40 H40         93.0780   -12.3600    12.6300 hc         1 KIY       0.055033
     41 H42         92.2160   -11.5090    11.3640 hc         1 KIY       0.055033
     42 H41         93.9630   -11.7530    11.2200 hc         1 KIY       0.055033
@<TRIPOS>BOND
     1     1     2 1   
     2     1     3 1   
     3     1     4 1   
     4     1    22 1   
     5     2     3 1   
     6     2    23 1   
     7     2    24 1   
     8     3    25 1   
     9     3    26 1   
    10     4     5 1   
    11     4    27 1   
    12     4    28 1   
    13     5     6 1   
    14     6     7 ar  
    15     6     9 ar  
    16     7    11 ar  
    17     7    29 1   
    18     8     9 ar  
    19     8    10 ar  
    20     8    30 1   
    21     9    31 1   
    22    10    11 ar  
    23    10    15 ar  
    24    11    14 ar  
    25    12    13 ar  
    26    12    14 ar  
    27    12    21 1   
    28    13    15 ar  
    29    15    16 1   
    30    16    17 1   
    31    16    20 1   
    32    17    18 1   
    33    17    32 1   
    34    17    33 1   
    35    18    19 1   
    36    18    34 1   
    37    18    35 1   
    38    19    20 1   
    39    19    36 1   
    40    19    37 1   
    41    20    38 1   
    42    20    39 1   
    43    21    40 1   
    44    21    41 1   
    45    21    42 1   
@<TRIPOS>SUBSTRUCTURE
     1 KIY         1 TEMP              0 ****  ****    0 ROOT
