@<TRIPOS>MOLECULE
KIY
   42    45     1     0     0
SMALL
No Charge or Current Charge


@<TRIPOS>ATOM
      1 C1          98.7730    -6.3830    12.7050 cx         1 KIY      -0.163700
      2 C2          98.9020    -7.8840    12.8620 cx         1 KIY      -0.123900
      3 C3         100.0610    -7.0780    12.3250 cx         1 KIY      -0.123900
      4 C4          97.8850    -5.7500    11.6330 c3         1 KIY       0.196600
      5 O5          96.6610    -5.3150    12.2580 os         1 KIY      -0.348100
      6 C6          95.6890    -6.1870    12.7080 ca         1 KIY       0.185100
      7 C7          95.5580    -7.5010    12.2180 ca         1 KIY      -0.215000
      8 C8          93.7660    -6.5490    14.1560 ca         1 KIY      -0.038000
      9 C9          94.7790    -5.7130    13.6610 ca         1 KIY      -0.163000
     10 C10         93.6560    -7.8790    13.6940 ca         1 KIY      -0.208000
     11 C11         94.5490    -8.3510    12.7030 ca         1 KIY       0.097000
     12 C12         93.4410   -10.3710    12.7040 ca         1 KIY       0.196300
     13 N13         92.5510   -10.0170    13.6480 nb         1 KIY      -0.316000
     14 N14         94.4320    -9.6020    12.2150 nb         1 KIY      -0.235000
     15 C15         92.6610    -8.7760    14.1570 ca         1 KIY       0.428900
     16 N16         91.7360    -8.4590    15.1760 nh         1 KIY      -0.786300
     17 C17         90.3190    -8.9140    15.1410 c5         1 KIY       0.227800
     18 C18         89.8060    -8.4440    16.5250 c5         1 KIY      -0.097900
     19 C19         91.0380    -8.7510    17.4110 c5         1 KIY      -0.097900
     20 C20         92.1770    -8.1330    16.5610 c5         1 KIY       0.227800
     21 C21         93.3120   -11.7710    12.1330 c3         1 KIY      -0.133400
     22 H22         98.8040    -5.7880    13.6150 hc         1 KIY       0.088700
     23 H23         98.9830    -8.2800    13.8710 hc         1 KIY       0.074700
     24 H24         98.3810    -8.5310    12.1620 hc         1 KIY       0.074700
     25 H26        100.2980    -7.1770    11.2670 hc         1 KIY       0.074700
     26 H25        100.9240    -6.9370    12.9720 hc         1 KIY       0.074700
     27 H27         98.4120    -4.8810    11.2190 h1         1 KIY       0.057700
     28 H28         97.7020    -6.4430    10.8020 h1         1 KIY       0.057700
     29 H29         96.2230    -7.8760    11.4480 ha         1 KIY       0.136000
     30 H30         93.0660    -6.1460    14.8820 ha         1 KIY       0.111000
     31 H31         94.8610    -4.6910    14.0210 ha         1 KIY       0.127000
     32 H33         89.7500    -8.4580    14.3190 h1         1 KIY       0.056200
     33 H32         90.2480   -10.0080    15.0510 h1         1 KIY       0.056200
     34 H35         89.5680    -7.3740    16.5200 hc         1 KIY       0.056200
     35 H34         88.9060    -8.9840    16.8410 hc         1 KIY       0.056200
     36 H37         90.9710    -8.3000    18.4080 hc         1 KIY       0.056200
     37 H36         91.1800    -9.8300    17.5440 hc         1 KIY       0.056200
     38 H38         93.1520    -8.5750    16.8090 h1         1 KIY       0.056200
     39 H39         92.2380    -7.0480    16.7190 h1         1 KIY       0.056200
     40 H40         92.9260   -12.4750    12.8800 hc         1 KIY       0.055033
     41 H42         92.6240   -11.7800    11.2790 hc         1 KIY       0.055033
     42 H41         94.2790   -12.1560    11.7880 hc         1 KIY       0.055033
@<TRIPOS>BOND
     1     1     2 1   
     2     1     3 1   
     3     1     4 1   
     4     1    22 1   
     5     2     3 1   
     6     2    23 1   
     7     2    24 1   
     8     3    25 1   
     9     3    26 1   
    10     4     5 1   
    11     4    27 1   
    12     4    28 1   
    13     5     6 1   
    14     6     7 ar  
    15     6     9 ar  
    16     7    11 ar  
    17     7    29 1   
    18     8     9 ar  
    19     8    10 ar  
    20     8    30 1   
    21     9    31 1   
    22    10    11 ar  
    23    10    15 ar  
    24    11    14 ar  
    25    12    13 ar  
    26    12    14 ar  
    27    12    21 1   
    28    13    15 ar  
    29    15    16 1   
    30    16    17 1   
    31    16    20 1   
    32    17    18 1   
    33    17    32 1   
    34    17    33 1   
    35    18    19 1   
    36    18    34 1   
    37    18    35 1   
    38    19    20 1   
    39    19    36 1   
    40    19    37 1   
    41    20    38 1   
    42    20    39 1   
    43    21    40 1   
    44    21    41 1   
    45    21    42 1   
@<TRIPOS>SUBSTRUCTURE
     1 KIY         1 TEMP              0 ****  ****    0 ROOT
