@<TRIPOS>MOLECULE
KIZ
   31    31     1     0     0
SMALL
bcc


@<TRIPOS>ATOM
      1 C1          23.3080   -18.8830    -0.7750 c3         1 KIZ       0.076300
      2 C3          22.4070   -16.6580    -0.1980 c3         1 KIZ       0.076300
      3 C6          20.5740   -19.8030    -1.2670 c3         1 KIZ       0.048500
      4 C8          20.5640   -20.6980    -0.0180 c3         1 KIZ      -0.036100
      5 C10         19.9610   -19.2920     1.9850 ca         1 KIZ      -0.094000
      6 C11         19.0640   -18.8470     2.9430 ca         1 KIZ      -0.154000
      7 C12         17.7870   -19.3780     2.9510 ca         1 KIZ       0.175900
      8 C14         17.3920   -20.3460     2.0500 ca         1 KIZ      -0.154000
      9 C15         18.3070   -20.7800     1.1010 ca         1 KIZ      -0.094000
     10 N2          22.1510   -18.0180    -0.6420 n          1 KIZ      -0.440800
     11 C4          20.8880   -18.3440    -0.9310 c          1 KIZ       0.651100
     12 O5          19.9660   -17.5400    -0.8860 o          1 KIZ      -0.596100
     13 N7          19.2410   -19.8170    -1.9250 nz         1 KIZ      -0.823600
     14 C9          19.5950   -20.2530     1.0440 ca         1 KIZ      -0.166300
     15 H20         23.7280   -19.1230     0.2030 h1         1 KIZ       0.061700
     16 H21         23.0710   -19.8120    -1.2820 h1         1 KIZ       0.061700
     17 H22         24.0720   -18.3790    -1.3650 h1         1 KIZ       0.061700
     18 H25         21.7530   -16.3840     0.6280 h1         1 KIZ       0.061700
     19 H23         23.4360   -16.5950     0.1470 h1         1 KIZ       0.061700
     20 H24         22.2690   -15.9390    -1.0060 h1         1 KIZ       0.061700
     21 H16         21.2620   -20.2180    -2.0020 hx         1 KIZ       0.109700
     22 H26         20.3380   -21.7180    -0.3380 hc         1 KIZ       0.085200
     23 H27         21.5790   -20.7220     0.3800 hc         1 KIZ       0.085200
     24 H28         20.9650   -18.8850     1.9800 ha         1 KIZ       0.130500
     25 H29         19.3540   -18.1020     3.6720 ha         1 KIZ       0.170500
     26 H30         16.3930   -20.7600     2.0870 ha         1 KIZ       0.170500
     27 H31         18.0070   -21.5490     0.3980 ha         1 KIZ       0.130500
     28 H19         18.9030   -20.7710    -2.0660 hn         1 KIZ       0.464133
     29 H17         18.5420   -19.3070    -1.3790 hn         1 KIZ       0.464133
     30 H18         19.2720   -19.3780    -2.8470 hn         1 KIZ       0.464133
     31 F13         16.9080   -18.9410     3.8660 f          1 KIZ      -0.114900
@<TRIPOS>BOND
     1     1    10 1   
     2     1    15 1   
     3     1    16 1   
     4     1    17 1   
     5     2    10 1   
     6     2    18 1   
     7     2    19 1   
     8     2    20 1   
     9     3     4 1   
    10     3    11 1   
    11     3    13 1   
    12     3    21 1   
    13     4    14 1   
    14     4    22 1   
    15     4    23 1   
    16     5     6 ar  
    17     5    14 ar  
    18     5    24 1   
    19     6     7 ar  
    20     6    25 1   
    21     7     8 ar  
    22     7    31 1   
    23     8     9 ar  
    24     8    26 1   
    25     9    14 ar  
    26     9    27 1   
    27    10    11 1   
    28    11    12 2   
    29    13    28 1   
    30    13    29 1   
    31    13    30 1   
@<TRIPOS>SUBSTRUCTURE
     1 KIZ         1 TEMP              0 ****  ****    0 ROOT
