@<TRIPOS>MOLECULE
KIZ
   31    31     1     0     0
SMALL
No Charge or Current Charge


@<TRIPOS>ATOM
      1 C1          23.4150   -18.9470    -1.0240 c3         1 KIZ       0.076300
      2 C3          22.7830   -16.6050    -0.3160 c3         1 KIZ       0.076300
      3 C6          20.5240   -19.7220    -1.1800 c3         1 KIZ       0.020300
      4 C8          20.5960   -20.5790     0.1090 c3         1 KIZ      -0.036100
      5 C10         19.7160   -19.1380     2.0140 ca         1 KIZ      -0.076000
      6 C11         18.7220   -18.8010     2.9500 ca         1 KIZ      -0.136000
      7 C12         17.5320   -19.5410     3.0040 ca         1 KIZ       0.211000
      8 C14         17.3290   -20.6200     2.1300 ca         1 KIZ      -0.136000
      9 C15         18.3210   -20.9590     1.1930 ca         1 KIZ      -0.076000
     10 N2          22.3500   -17.9740    -0.6780 n          1 KIZ      -0.373800
     11 C4          20.9840   -18.2400    -0.9340 c          1 KIZ       0.584100
     12 O5          20.1640   -17.3280    -0.9490 o          1 KIZ      -0.596100
     13 N7          19.1230   -19.8010    -1.7930 nz         1 KIZ      -0.961000
     14 C9          19.5180   -20.2160     1.1270 ca         1 KIZ      -0.166300
     15 H20         23.5440   -19.6710    -0.2090 h1         1 KIZ       0.061700
     16 H21         23.1670   -19.4790    -1.9510 h1         1 KIZ       0.061700
     17 H22         24.3690   -18.4280    -1.1780 h1         1 KIZ       0.061700
     18 H25         22.1050   -16.1820     0.4370 h1         1 KIZ       0.061700
     19 H23         23.7980   -16.6210     0.1030 h1         1 KIZ       0.061700
     20 H24         22.7730   -15.9640    -1.2070 h1         1 KIZ       0.061700
     21 H16         21.2330   -20.1330    -1.9050 hx         1 KIZ       0.109700
     22 H26         20.5040   -21.6360    -0.1710 hc         1 KIZ       0.085200
     23 H27         21.5870   -20.4890     0.5690 hc         1 KIZ       0.085200
     24 H28         20.6380   -18.5600     1.9800 ha         1 KIZ       0.112500
     25 H29         18.8730   -17.9690     3.6330 ha         1 KIZ       0.152500
     26 H30         16.4060   -21.1900     2.1820 ha         1 KIZ       0.152500
     27 H31         18.1580   -21.8000     0.5210 ha         1 KIZ       0.112500
     28 H19         18.8220   -20.7570    -2.0400 hn         1 KIZ       0.519333
     29 H17         18.4010   -19.4290    -1.1570 hn         1 KIZ       0.519333
     30 H18         19.0250   -19.2440    -2.6570 hn         1 KIZ       0.519333
     31 F13         16.5790   -19.2170     3.9050 f          1 KIZ      -0.150000
@<TRIPOS>BOND
     1     1    10 1   
     2     1    15 1   
     3     1    16 1   
     4     1    17 1   
     5     2    10 1   
     6     2    18 1   
     7     2    19 1   
     8     2    20 1   
     9     3     4 1   
    10     3    11 1   
    11     3    13 1   
    12     3    21 1   
    13     4    14 1   
    14     4    22 1   
    15     4    23 1   
    16     5     6 ar  
    17     5    14 ar  
    18     5    24 1   
    19     6     7 ar  
    20     6    25 1   
    21     7     8 ar  
    22     7    31 1   
    23     8     9 ar  
    24     8    26 1   
    25     9    14 ar  
    26     9    27 1   
    27    10    11 1   
    28    11    12 2   
    29    13    28 1   
    30    13    29 1   
    31    13    30 1   
@<TRIPOS>SUBSTRUCTURE
     1 KIZ         1 TEMP              0 ****  ****    0 ROOT
