@<TRIPOS>MOLECULE
KJ0
   80    84     1     0     0
SMALL
abcg2


@<TRIPOS>ATOM
      1 C10        -11.4620   -18.1210    16.2160 c6         1 KJ0      -0.072900
      2 C15        -15.6460   -18.5170    22.6050 ca         1 KJ0      -0.126800
      3 C17        -16.0910   -18.0330    24.8940 ca         1 KJ0      -0.132000
      4 C20        -16.9220   -19.0790    22.5100 ca         1 KJ0       0.071100
      5 C24        -16.0950   -23.1140    15.3970 c3         1 KJ0       0.091700
      6 C14        -15.0760   -18.6560    21.3000 cc         1 KJ0      -0.195200
      7 C18        -17.3670   -18.6040    24.7690 ca         1 KJ0      -0.084000
      8 C19        -17.8090   -19.1400    23.5720 ca         1 KJ0      -0.103000
      9 C25        -17.5520   -23.1820    14.9510 c3         1 KJ0      -0.081400
     10 C2         -15.0930   -21.4520    16.9120 c          1 KJ0       0.585100
     11 C3         -14.7930   -19.9610    17.0770 c3         1 KJ0       0.039700
     12 C4         -13.3770   -19.6870    16.5660 c3         1 KJ0      -0.086400
     13 C5         -12.9390   -18.2220    16.5990 c6         1 KJ0      -0.060700
     14 C6         -13.7850   -17.3380    15.6830 c6         1 KJ0      -0.072900
     15 C7         -13.2920   -15.8940    15.6750 c6         1 KJ0      -0.073400
     16 C8         -11.8180   -15.8080    15.2980 c6         1 KJ0      -0.075400
     17 C9         -10.9680   -16.6790    16.2170 c6         1 KJ0      -0.073400
     18 C13        -16.0160   -19.2720    20.5450 cd         1 KJ0      -0.040100
     19 C16        -15.2200   -17.9820    23.8230 ca         1 KJ0      -0.055000
     20 C26        -18.5600   -22.7500    16.0300 c6         1 KJ0      -0.134700
     21 C27        -18.4430   -23.5160    17.3460 c6         1 KJ0      -0.075400
     22 C28        -18.9040   -24.9530    17.1680 c6         1 KJ0      -0.094400
     23 C29        -20.3660   -24.9660    16.7670 c6         1 KJ0       0.113000
     24 C31        -19.9420   -22.8860    15.4160 c          1 KJ0       0.565000
     25 C33        -15.1270   -23.6270    14.3140 c3         1 KJ0       0.068300
     26 C35        -15.4120   -25.1050    14.0670 c          1 KJ0       0.601100
     27 C37        -16.1720   -26.7600    12.4710 cx         1 KJ0       0.047700
     28 C38        -17.4760   -27.2840    12.9840 cx         1 KJ0      -0.134900
     29 C39        -17.3290   -26.9160    11.5400 cx         1 KJ0      -0.134900
     30 N11        -14.8990   -19.5810    18.4620 ns         1 KJ0      -0.482900
     31 N23        -15.7500   -21.7650    15.7830 ns         1 KJ0      -0.504900
     32 N30        -20.6570   -23.9780    15.7400 ns         1 KJ0      -0.507900
     33 N36        -15.7820   -25.4350    12.8240 ns         1 KJ0      -0.469900
     34 O1         -14.7130   -22.2710    17.7320 o          1 KJ0      -0.589100
     35 O21        -17.1400   -19.5340    21.2610 os         1 KJ0      -0.128200
     36 O22        -17.1070   -20.0410    18.6050 o          1 KJ0      -0.574100
     37 O32        -20.3590   -22.0610    14.6100 o          1 KJ0      -0.582000
     38 O34        -15.2340   -22.8950    13.1210 oh         1 KJ0      -0.670000
     39 O40        -15.3290   -25.9050    14.9870 o          1 KJ0      -0.597100
     40 H1         -11.3210   -18.5490    15.2160 hc         1 KJ0       0.039450
     41 H2         -10.8610   -18.7270    16.9000 hc         1 KJ0       0.039450
     42 H4         -15.9480   -23.7480    16.2700 h1         1 KJ0       0.109700
     43 H5         -14.1000   -18.3240    20.9810 ha         1 KJ0       0.210000
     44 H6         -18.0220   -18.6250    25.6300 ha         1 KJ0       0.117000
     45 H7         -18.7930   -19.5800    23.4740 ha         1 KJ0       0.136000
     46 H8         -17.6910   -22.5480    14.0720 hc         1 KJ0       0.061200
     47 H9         -17.7760   -24.2010    14.6260 hc         1 KJ0       0.061200
     48 H10        -15.5130   -19.3810    16.4920 h1         1 KJ0       0.075700
     49 H11        -12.6750   -20.2900    17.1530 hc         1 KJ0       0.055700
     50 H12        -13.3100   -20.0500    15.5360 hc         1 KJ0       0.055700
     51 H13        -13.0370   -17.8410    17.6240 hc         1 KJ0       0.048700
     52 H14        -14.8350   -17.3630    15.9880 hc         1 KJ0       0.039450
     53 H15        -13.7470   -17.7450    14.6650 hc         1 KJ0       0.039450
     54 H16        -13.4380   -15.4610    16.6700 hc         1 KJ0       0.041200
     55 H17        -13.8960   -15.2980    14.9860 hc         1 KJ0       0.041200
     56 H18        -11.6880   -16.1420    14.2630 hc         1 KJ0       0.040200
     57 H19        -11.4760   -14.7700    15.3350 hc         1 KJ0       0.040200
     58 H20         -9.9190   -16.6420    15.9150 hc         1 KJ0       0.041200
     59 H21        -11.0130   -16.2810    17.2370 hc         1 KJ0       0.041200
     60 H22        -14.2370   -17.5410    23.9240 ha         1 KJ0       0.120000
     61 H23        -18.4150   -21.6840    16.2250 hc         1 KJ0       0.087700
     62 H24        -17.4230   -23.4730    17.7310 hc         1 KJ0       0.061700
     63 H25        -19.0680   -23.0270    18.0990 hc         1 KJ0       0.061700
     64 H26        -18.2940   -25.4620    16.4170 hc         1 KJ0       0.056200
     65 H27        -18.7930   -25.5180    18.0940 hc         1 KJ0       0.056200
     66 H28        -20.9860   -24.7660    17.6460 h1         1 KJ0       0.036200
     67 H29        -20.6550   -25.9480    16.3890 h1         1 KJ0       0.036200
     68 H30        -14.1100   -23.5700    14.7240 h1         1 KJ0       0.069700
     69 H31        -15.3580   -27.4710    12.3710 h1         1 KJ0       0.088700
     70 H32        -18.0630   -26.6270    13.6130 hc         1 KJ0       0.077700
     71 H33        -17.5300   -28.3310    13.2520 hc         1 KJ0       0.077700
     72 H34        -17.8230   -26.0160    11.1960 hc         1 KJ0       0.077700
     73 H35        -17.2770   -27.7070    10.8040 hc         1 KJ0       0.077700
     74 H36        -14.0460   -19.4240    18.9760 hn         1 KJ0       0.328500
     75 H37        -16.0450   -21.0150    15.1750 hn         1 KJ0       0.317500
     76 H38        -21.5710   -24.0340    15.3160 hn         1 KJ0       0.309500
     77 H39        -15.7680   -24.7210    12.1130 hn         1 KJ0       0.340500
     78 H40        -14.6350   -22.1430    13.1530 ho         1 KJ0       0.455000
     79 C12        -16.0640   -19.6750    19.1250 c          1 KJ0       0.640300
     80 H3         -15.7880   -17.6270    25.8500 ha         1 KJ0       0.116000
@<TRIPOS>BOND
     1     1    13 1   
     2     1    17 1   
     3     1    40 1   
     4     1    41 1   
     5     2     4 ar  
     6     2     6 1   
     7     2    19 ar  
     8     3     7 ar  
     9     3    19 ar  
    10     3    80 1   
    11     4     8 ar  
    12     4    35 1   
    13     5     9 1   
    14     5    25 1   
    15     5    31 1   
    16     5    42 1   
    17     6    18 2   
    18     6    43 1   
    19     7     8 ar  
    20     7    44 1   
    21     8    45 1   
    22     9    20 1   
    23     9    46 1   
    24     9    47 1   
    25    10    11 1   
    26    10    31 1   
    27    10    34 2   
    28    11    12 1   
    29    11    30 1   
    30    11    48 1   
    31    12    13 1   
    32    12    49 1   
    33    12    50 1   
    34    13    14 1   
    35    13    51 1   
    36    14    15 1   
    37    14    52 1   
    38    14    53 1   
    39    15    16 1   
    40    15    54 1   
    41    15    55 1   
    42    16    17 1   
    43    16    56 1   
    44    16    57 1   
    45    17    58 1   
    46    17    59 1   
    47    18    35 1   
    48    18    79 1   
    49    19    60 1   
    50    20    21 1   
    51    20    24 1   
    52    20    61 1   
    53    21    22 1   
    54    21    62 1   
    55    21    63 1   
    56    22    23 1   
    57    22    64 1   
    58    22    65 1   
    59    23    32 1   
    60    23    66 1   
    61    23    67 1   
    62    24    32 1   
    63    24    37 2   
    64    25    26 1   
    65    25    38 1   
    66    25    68 1   
    67    26    33 1   
    68    26    39 2   
    69    27    28 1   
    70    27    29 1   
    71    27    33 1   
    72    27    69 1   
    73    28    29 1   
    74    28    70 1   
    75    28    71 1   
    76    29    72 1   
    77    29    73 1   
    78    30    74 1   
    79    30    79 1   
    80    31    75 1   
    81    32    76 1   
    82    33    77 1   
    83    36    79 2   
    84    38    78 1   
@<TRIPOS>SUBSTRUCTURE
     1 KJ0         1 TEMP              0 ****  ****    0 ROOT
