@<TRIPOS>MOLECULE
KJ0
   80    84     1     0     0
SMALL
No Charge or Current Charge


@<TRIPOS>ATOM
      1 C10        -12.4810   -17.7400    16.0080 c6         1 KJ0      -0.072900
      2 C15        -14.4650   -19.0260    23.1580 ca         1 KJ0      -0.126800
      3 C17        -14.0100   -18.6970    25.5000 ca         1 KJ0      -0.132000
      4 C20        -15.2860   -17.9220    23.1630 ca         1 KJ0       0.071100
      5 C24        -16.2880   -23.4210    15.6910 c3         1 KJ0       0.091700
      6 C14        -14.4600   -19.5700    21.8150 cc         1 KJ0      -0.195200
      7 C18        -14.8580   -17.5600    25.4980 ca         1 KJ0      -0.084000
      8 C19        -15.5120   -17.1580    24.3120 ca         1 KJ0      -0.103000
      9 C25        -17.3840   -23.4350    14.5860 c3         1 KJ0      -0.081400
     10 C2         -15.4900   -21.6750    17.3300 c          1 KJ0       0.585100
     11 C3         -15.2790   -20.1460    17.5320 c3         1 KJ0       0.039700
     12 C4         -14.0630   -19.6340    16.7080 c3         1 KJ0      -0.086400
     13 C5         -13.8430   -18.0880    16.6740 c6         1 KJ0      -0.060700
     14 C6         -14.9970   -17.3410    15.9420 c6         1 KJ0      -0.072900
     15 C7         -14.7530   -15.8120    15.9100 c6         1 KJ0      -0.073400
     16 C8         -13.3900   -15.4730    15.2600 c6         1 KJ0      -0.075400
     17 C9         -12.2350   -16.2120    15.9760 c6         1 KJ0      -0.073400
     18 C13        -15.3050   -18.7250    21.0930 cd         1 KJ0      -0.040100
     19 C16        -13.8040   -19.4470    24.3190 ca         1 KJ0      -0.055000
     20 C26        -18.7150   -22.6640    14.9010 c6         1 KJ0      -0.134700
     21 C27        -19.4290   -23.1700    16.1880 c6         1 KJ0      -0.075400
     22 C28        -20.1010   -24.5360    15.9440 c6         1 KJ0      -0.094400
     23 C29        -21.1480   -24.4360    14.8140 c6         1 KJ0       0.113000
     24 C31        -19.6120   -22.7690    13.6420 c          1 KJ0       0.565000
     25 C33        -15.0010   -24.2100    15.3100 c3         1 KJ0       0.068300
     26 C35        -15.3210   -25.7170    15.0680 c          1 KJ0       0.601100
     27 C37        -15.4090   -27.4710    13.2940 cx         1 KJ0       0.047700
     28 C38        -16.8010   -27.7400    12.7760 cx         1 KJ0      -0.134900
     29 C39        -15.6430   -27.6410    11.8130 cx         1 KJ0      -0.134900
     30 N11        -15.1040   -19.8470    18.9720 ns         1 KJ0      -0.482900
     31 N23        -15.9710   -22.0410    16.0890 ns         1 KJ0      -0.504900
     32 N30        -20.7270   -23.5770    13.6940 ns         1 KJ0      -0.507900
     33 N36        -15.1250   -26.1480    13.7750 ns         1 KJ0      -0.469900
     34 O1         -15.2590   -22.5050    18.2000 o          1 KJ0      -0.589100
     35 O21        -15.7970   -17.7360    21.9150 os         1 KJ0      -0.128200
     36 O22        -16.4350   -17.9980    19.1050 o          1 KJ0      -0.574100
     37 O32        -19.3890   -22.1090    12.6400 o          1 KJ0      -0.582000
     38 O34        -14.3340   -23.5790    14.1770 oh         1 KJ0      -0.670000
     39 O40        -15.7220   -26.4650    15.9520 o          1 KJ0      -0.597100
     40 H1         -12.4520   -18.1380    14.9840 hc         1 KJ0       0.039450
     41 H2         -11.6610   -18.2280    16.5540 hc         1 KJ0       0.039450
     42 H4         -16.7060   -23.9300    16.5710 h1         1 KJ0       0.109700
     43 H5         -13.9170   -20.4390    21.4510 ha         1 KJ0       0.210000
     44 H6         -15.0070   -16.9940    26.4150 ha         1 KJ0       0.117000
     45 H7         -16.1660   -16.2900    24.2900 ha         1 KJ0       0.136000
     46 H8         -16.9440   -23.0160    13.6720 hc         1 KJ0       0.061200
     47 H9         -17.6210   -24.4770    14.3370 hc         1 KJ0       0.061200
     48 H10        -16.1950   -19.6620    17.1710 h1         1 KJ0       0.075700
     49 H11        -13.1630   -20.1200    17.1060 hc         1 KJ0       0.055700
     50 H12        -14.1590   -19.9940    15.6760 hc         1 KJ0       0.055700
     51 H13        -13.8050   -17.7450    17.7170 hc         1 KJ0       0.048700
     52 H14        -15.9580   -17.5370    16.4330 hc         1 KJ0       0.039450
     53 H15        -15.0920   -17.7180    14.9140 hc         1 KJ0       0.039450
     54 H16        -14.7860   -15.4110    16.9320 hc         1 KJ0       0.041200
     55 H17        -15.5630   -15.3170    15.3560 hc         1 KJ0       0.041200
     56 H18        -13.4070   -15.7540    14.1970 hc         1 KJ0       0.040200
     57 H19        -13.2190   -14.3890    15.2940 hc         1 KJ0       0.040200
     58 H20        -11.2840   -15.9980    15.4690 hc         1 KJ0       0.041200
     59 H21        -12.1320   -15.8320    17.0030 hc         1 KJ0       0.041200
     60 H22        -13.1550   -20.3200    24.3130 ha         1 KJ0       0.120000
     61 H23        -18.4370   -21.6070    15.0030 hc         1 KJ0       0.087700
     62 H24        -18.7390   -23.2240    17.0400 hc         1 KJ0       0.061700
     63 H25        -20.2000   -22.4420    16.4800 hc         1 KJ0       0.061700
     64 H26        -19.3450   -25.2880    15.6830 hc         1 KJ0       0.056200
     65 H27        -20.5840   -24.8940    16.8630 hc         1 KJ0       0.056200
     66 H28        -22.0750   -24.0100    15.2230 h1         1 KJ0       0.036200
     67 H29        -21.3840   -25.4390    14.4300 h1         1 KJ0       0.036200
     68 H30        -14.3280   -24.1950    16.1770 h1         1 KJ0       0.069700
     69 H31        -14.8940   -28.2690    13.8320 h1         1 KJ0       0.088700
     70 H32        -17.5190   -26.9240    12.7930 hc         1 KJ0       0.077700
     71 H33        -17.2250   -28.7240    12.9620 hc         1 KJ0       0.077700
     72 H34        -15.5850   -26.7600    11.1790 hc         1 KJ0       0.077700
     73 H35        -15.2880   -28.5590    11.3500 hc         1 KJ0       0.077700
     74 H36        -14.5340   -20.4800    19.5200 hn         1 KJ0       0.328500
     75 H37        -16.1570   -21.2930    15.4300 hn         1 KJ0       0.317500
     76 H38        -21.2950   -23.5840    12.8550 hn         1 KJ0       0.309500
     77 H39        -14.7640   -25.4390    13.1450 hn         1 KJ0       0.340500
     78 H40        -14.1450   -22.6490    14.4340 ho         1 KJ0       0.455000
     79 C12        -15.6810   -18.7930    19.6490 c          1 KJ0       0.640300
     80 H3         -13.5120   -18.9960    26.4200 ha         1 KJ0       0.116000
@<TRIPOS>BOND
     1     1    13 1   
     2     1    17 1   
     3     1    40 1   
     4     1    41 1   
     5     2     4 ar  
     6     2     6 1   
     7     2    19 ar  
     8     3     7 ar  
     9     3    19 ar  
    10     3    80 1   
    11     4     8 ar  
    12     4    35 1   
    13     5     9 1   
    14     5    25 1   
    15     5    31 1   
    16     5    42 1   
    17     6    18 2   
    18     6    43 1   
    19     7     8 ar  
    20     7    44 1   
    21     8    45 1   
    22     9    20 1   
    23     9    46 1   
    24     9    47 1   
    25    10    11 1   
    26    10    31 1   
    27    10    34 2   
    28    11    12 1   
    29    11    30 1   
    30    11    48 1   
    31    12    13 1   
    32    12    49 1   
    33    12    50 1   
    34    13    14 1   
    35    13    51 1   
    36    14    15 1   
    37    14    52 1   
    38    14    53 1   
    39    15    16 1   
    40    15    54 1   
    41    15    55 1   
    42    16    17 1   
    43    16    56 1   
    44    16    57 1   
    45    17    58 1   
    46    17    59 1   
    47    18    35 1   
    48    18    79 1   
    49    19    60 1   
    50    20    21 1   
    51    20    24 1   
    52    20    61 1   
    53    21    22 1   
    54    21    62 1   
    55    21    63 1   
    56    22    23 1   
    57    22    64 1   
    58    22    65 1   
    59    23    32 1   
    60    23    66 1   
    61    23    67 1   
    62    24    32 1   
    63    24    37 2   
    64    25    26 1   
    65    25    38 1   
    66    25    68 1   
    67    26    33 1   
    68    26    39 2   
    69    27    28 1   
    70    27    29 1   
    71    27    33 1   
    72    27    69 1   
    73    28    29 1   
    74    28    70 1   
    75    28    71 1   
    76    29    72 1   
    77    29    73 1   
    78    30    74 1   
    79    30    79 1   
    80    31    75 1   
    81    32    76 1   
    82    33    77 1   
    83    36    79 2   
    84    38    78 1   
@<TRIPOS>SUBSTRUCTURE
     1 KJ0         1 TEMP              0 ****  ****    0 ROOT
