@<TRIPOS>MOLECULE
KJ1
   55    54     1     0     0
SMALL
No Charge or Current Charge


@<TRIPOS>ATOM
      1 C13          1.8390     0.0040    -0.5640 c3         1 KJ1      -0.094400
      2 C15          4.3950    -0.0950    -0.2580 c3         1 KJ1      -0.073400
      3 C17          6.9510    -0.1930     0.0480 c3         1 KJ1      -0.065400
      4 C01        -11.5950     0.2850     0.2210 c3         1 KJ1      -0.089100
      5 C02        -10.3340    -0.5980     0.1690 c3         1 KJ1      -0.074400
      6 C03         -9.0220     0.2150     0.2400 c3         1 KJ1      -0.075400
      7 C04         -7.7580    -0.6710     0.1880 c3         1 KJ1      -0.074400
      8 C05         -6.4470     0.1430     0.2580 c3         1 KJ1      -0.074400
      9 C06         -5.1830    -0.7430     0.2070 c3         1 KJ1      -0.076400
     10 C07         -3.8720     0.0700     0.2760 c3         1 KJ1      -0.067400
     11 C08         -2.6070    -0.8190     0.2250 c3         1 KJ1      -0.156400
     12 C09         -1.3250     0.0200     0.2910 c          1 KJ1       0.600100
     13 O10         -0.9340     0.5430     1.3250 o          1 KJ1      -0.607100
     14 N11         -0.6320     0.1180    -0.8950 ns         1 KJ1      -0.509900
     15 C12          0.6370     0.8290    -1.0670 c3         1 KJ1       0.100000
     16 C14          3.1880     0.7290    -0.7590 c3         1 KJ1      -0.073400
     17 C16          5.7440     0.6310    -0.4530 c3         1 KJ1      -0.077400
     18 C18          8.3030     0.5340    -0.1490 c3         1 KJ1      -0.159400
     19 C19          9.4720    -0.3120     0.3640 c          1 KJ1       0.604100
     20 N20          9.9060    -0.0340     1.6110 nt         1 KJ1      -0.613000
     21 O21         10.0020    -1.1910    -0.2930 o          1 KJ1      -0.607100
     22 H1           1.7030    -0.2230     0.5000 hc         1 KJ1       0.043200
     23 H2           1.8630    -0.9550    -1.0970 hc         1 KJ1       0.043200
     24 H3           4.2580    -0.3220     0.8070 hc         1 KJ1       0.041200
     25 H4           4.4220    -1.0550    -0.7890 hc         1 KJ1       0.041200
     26 H5           6.8150    -0.4210     1.1130 hc         1 KJ1       0.054700
     27 H6         -11.6110     0.9880    -0.6220 hc         1 KJ1       0.031367
     28 H7         -12.4980    -0.3350     0.1680 hc         1 KJ1       0.031367
     29 H8         -11.6280     0.8610     1.1530 hc         1 KJ1       0.031367
     30 H9         -10.3640    -1.3110     1.0020 hc         1 KJ1       0.036200
     31 H10        -10.3480    -1.1860    -0.7570 hc         1 KJ1       0.036200
     32 H11         -8.9960     0.9290    -0.5940 hc         1 KJ1       0.038200
     33 H12         -9.0130     0.8030     1.1660 hc         1 KJ1       0.038200
     34 H13         -7.7840    -1.3840     1.0210 hc         1 KJ1       0.036200
     35 H14         -7.7680    -1.2590    -0.7380 hc         1 KJ1       0.036200
     36 H15         -6.4210     0.8560    -0.5750 hc         1 KJ1       0.040200
     37 H16         -6.4370     0.7310     1.1840 hc         1 KJ1       0.040200
     38 H17         -5.2090    -1.4570     1.0400 hc         1 KJ1       0.035700
     39 H18         -5.1940    -1.3320    -0.7190 hc         1 KJ1       0.035700
     40 H19         -3.8450     0.7840    -0.5570 hc         1 KJ1       0.054700
     41 H20         -3.8620     0.6600     1.2020 hc         1 KJ1       0.054700
     42 H21         -2.6250    -1.4990     1.0850 hc         1 KJ1       0.054200
     43 H22         -2.6270    -1.3990    -0.7060 hc         1 KJ1       0.054200
     44 H23         -1.0340    -0.3530    -1.6970 hn         1 KJ1       0.308500
     45 H24          0.5900     1.7840    -0.5260 h1         1 KJ1       0.054200
     46 H25          0.7680     1.0530    -2.1340 h1         1 KJ1       0.054200
     47 H26          3.3250     0.9560    -1.8240 hc         1 KJ1       0.040700
     48 H27          3.1610     1.6890    -0.2280 hc         1 KJ1       0.040700
     49 H28          5.8810     0.8570    -1.5180 hc         1 KJ1       0.036200
     50 H29          8.4440     0.7330    -1.2180 hc         1 KJ1       0.054200
     51 H30          8.2560     1.4760     0.4110 hc         1 KJ1       0.054200
     52 H31         10.6740    -0.5630     1.9960 hn         1 KJ1       0.312000
     53 H32          9.4610     0.6940     2.1500 hn         1 KJ1       0.312000
     54 H33          6.9780    -1.1530    -0.4820 hc         1 KJ1       0.054700
     55 H34          5.7170     1.5900     0.0780 hc         1 KJ1       0.036200
@<TRIPOS>BOND
     1     1    15 1   
     2     1    16 1   
     3     1    22 1   
     4     1    23 1   
     5     2    16 1   
     6     2    17 1   
     7     2    24 1   
     8     2    25 1   
     9     3    17 1   
    10     3    18 1   
    11     3    26 1   
    12     3    54 1   
    13     4     5 1   
    14     4    27 1   
    15     4    28 1   
    16     4    29 1   
    17     5     6 1   
    18     5    30 1   
    19     5    31 1   
    20     6     7 1   
    21     6    32 1   
    22     6    33 1   
    23     7     8 1   
    24     7    34 1   
    25     7    35 1   
    26     8     9 1   
    27     8    36 1   
    28     8    37 1   
    29     9    10 1   
    30     9    38 1   
    31     9    39 1   
    32    10    11 1   
    33    10    40 1   
    34    10    41 1   
    35    11    12 1   
    36    11    42 1   
    37    11    43 1   
    38    12    13 2   
    39    12    14 1   
    40    14    15 1   
    41    14    44 1   
    42    15    45 1   
    43    15    46 1   
    44    16    47 1   
    45    16    48 1   
    46    17    49 1   
    47    17    55 1   
    48    18    19 1   
    49    18    50 1   
    50    18    51 1   
    51    19    20 1   
    52    19    21 2   
    53    20    52 1   
    54    20    53 1   
@<TRIPOS>SUBSTRUCTURE
     1 KJ1         1 TEMP              0 ****  ****    0 ROOT
