@<TRIPOS>MOLECULE
KJ1
   55    54     1     0     0
SMALL
bcc


@<TRIPOS>ATOM
      1 C13          1.9390    -0.0650    -0.1450 c3         1 KJ1      -0.094400
      2 C15          4.4760    -0.2610    -0.1660 c3         1 KJ1      -0.073400
      3 C17          7.0130    -0.4300    -0.1540 c3         1 KJ1      -0.065400
      4 C01        -11.6960    -0.1290    -0.2280 c3         1 KJ1      -0.089100
      5 C02        -10.3810    -0.8700    -0.0230 c3         1 KJ1      -0.074400
      6 C03         -9.1700     0.0550    -0.0650 c3         1 KJ1      -0.075400
      7 C04         -7.8460    -0.6750     0.1230 c3         1 KJ1      -0.074400
      8 C05         -6.6390     0.2550     0.0900 c3         1 KJ1      -0.074400
      9 C06         -5.3140    -0.4740     0.2730 c3         1 KJ1      -0.076400
     10 C07         -4.1150     0.4670     0.2520 c3         1 KJ1      -0.067400
     11 C08         -2.7970    -0.2750     0.4380 c3         1 KJ1      -0.156400
     12 C09         -1.6000     0.6520     0.4820 c          1 KJ1       0.667100
     13 O10         -1.6330     1.7250     1.0720 o          1 KJ1      -0.607100
     14 N11         -0.5020     0.1960    -0.1430 ns         1 KJ1      -0.576900
     15 C12          0.7620     0.8980    -0.1970 c3         1 KJ1       0.100000
     16 C14          3.2710     0.6690    -0.2330 c3         1 KJ1      -0.073400
     17 C16          5.8000     0.4880    -0.2340 c3         1 KJ1      -0.077400
     18 C18          8.3190     0.3520    -0.1950 c3         1 KJ1      -0.159400
     19 C19          9.5520    -0.5240    -0.1310 c          1 KJ1       0.671100
     20 N20         10.5980     0.0140     0.5150 nt         1 KJ1      -0.680000
     21 O21          9.5950    -1.6320    -0.6490 o          1 KJ1      -0.607100
     22 H1           1.8930    -0.6430     0.7830 hc         1 KJ1       0.043200
     23 H2           1.8630    -0.7850    -0.9670 hc         1 KJ1       0.043200
     24 H3           4.4340    -0.8430     0.7610 hc         1 KJ1       0.041200
     25 H4           4.4230    -0.9870    -0.9850 hc         1 KJ1       0.041200
     26 H5           6.9650    -1.0150     0.7700 hc         1 KJ1       0.054700
     27 H6         -11.7160     0.3740    -1.1960 hc         1 KJ1       0.031367
     28 H7         -12.5500    -0.8060    -0.1900 hc         1 KJ1       0.031367
     29 H8         -11.8440     0.6330     0.5400 hc         1 KJ1       0.031367
     30 H9         -10.4010    -1.3960     0.9360 hc         1 KJ1       0.036200
     31 H10        -10.2730    -1.6420    -0.7900 hc         1 KJ1       0.036200
     32 H11         -9.1570     0.5900    -1.0210 hc         1 KJ1       0.038200
     33 H12         -9.2760     0.8230     0.7100 hc         1 KJ1       0.038200
     34 H13         -7.8610    -1.2150     1.0770 hc         1 KJ1       0.036200
     35 H14         -7.7380    -1.4380    -0.6560 hc         1 KJ1       0.036200
     36 H15         -6.6270     0.7980    -0.8620 hc         1 KJ1       0.040200
     37 H16         -6.7460     1.0150     0.8720 hc         1 KJ1       0.040200
     38 H17         -5.3280    -1.0220     1.2220 hc         1 KJ1       0.035700
     39 H18         -5.2020    -1.2280    -0.5130 hc         1 KJ1       0.035700
     40 H19         -4.0980     1.0130    -0.6970 hc         1 KJ1       0.054700
     41 H20         -4.2290     1.2160     1.0390 hc         1 KJ1       0.054700
     42 H21         -2.8180    -0.8240     1.3870 hc         1 KJ1       0.054200
     43 H22         -2.6760    -1.0270    -0.3450 hc         1 KJ1       0.054200
     44 H23         -0.5730    -0.6650    -0.6610 hn         1 KJ1       0.308500
     45 H24          0.8100     1.5870     0.6460 h1         1 KJ1       0.054200
     46 H25          0.8200     1.5050    -1.1070 h1         1 KJ1       0.054200
     47 H26          3.3080     1.2450    -1.1650 hc         1 KJ1       0.040700
     48 H27          3.3360     1.4010     0.5790 hc         1 KJ1       0.040700
     49 H28          5.8430     1.0680    -1.1630 hc         1 KJ1       0.036200
     50 H29          8.3760     0.9230    -1.1290 hc         1 KJ1       0.054200
     51 H30          8.3380     1.0920     0.6090 hc         1 KJ1       0.054200
     52 H31         11.4780    -0.4750     0.5640 hn         1 KJ1       0.312000
     53 H32         10.5480     0.9200     0.9470 hn         1 KJ1       0.312000
     54 H33          6.9840    -1.1470    -0.9770 hc         1 KJ1       0.054700
     55 H34          5.8430     1.2190     0.5810 hc         1 KJ1       0.036200
@<TRIPOS>BOND
     1     1    15 1   
     2     1    16 1   
     3     1    22 1   
     4     1    23 1   
     5     2    16 1   
     6     2    17 1   
     7     2    24 1   
     8     2    25 1   
     9     3    17 1   
    10     3    18 1   
    11     3    26 1   
    12     3    54 1   
    13     4     5 1   
    14     4    27 1   
    15     4    28 1   
    16     4    29 1   
    17     5     6 1   
    18     5    30 1   
    19     5    31 1   
    20     6     7 1   
    21     6    32 1   
    22     6    33 1   
    23     7     8 1   
    24     7    34 1   
    25     7    35 1   
    26     8     9 1   
    27     8    36 1   
    28     8    37 1   
    29     9    10 1   
    30     9    38 1   
    31     9    39 1   
    32    10    11 1   
    33    10    40 1   
    34    10    41 1   
    35    11    12 1   
    36    11    42 1   
    37    11    43 1   
    38    12    13 2   
    39    12    14 1   
    40    14    15 1   
    41    14    44 1   
    42    15    45 1   
    43    15    46 1   
    44    16    47 1   
    45    16    48 1   
    46    17    49 1   
    47    17    55 1   
    48    18    19 1   
    49    18    50 1   
    50    18    51 1   
    51    19    20 1   
    52    19    21 2   
    53    20    52 1   
    54    20    53 1   
@<TRIPOS>SUBSTRUCTURE
     1 KJ1         1 TEMP              0 ****  ****    0 ROOT
