@<TRIPOS>MOLECULE
KJ2
   43    45     1     0     0
SMALL
No Charge or Current Charge


@<TRIPOS>ATOM
      1 C1           2.4190    -0.6860    -2.9310 ca         1 KJ2       0.211100
      2 C2           1.8430     0.5180    -3.3800 ca         1 KJ2      -0.029000
      3 C3           1.6210    -1.6630    -2.3220 ca         1 KJ2      -0.257000
      4 C4           0.2460    -1.4420    -2.1510 ca         1 KJ2       0.216100
      5 C5          -0.3400    -0.2290    -2.5840 ca         1 KJ2      -0.107000
      6 C6           0.4670     0.7410    -3.2100 ca         1 KJ2      -0.014000
      7 O7          -0.5140    -2.4190    -1.5780 oh         1 KJ2      -0.501100
      8 O8           3.7530    -0.9200    -3.0890 oh         1 KJ2      -0.522100
      9 Cl9          2.8320     1.7570    -4.1550 cl         1 KJ2      -0.200000
     10 C10         -1.7680     0.0350    -2.4220 cc         1 KJ2      -0.073000
     11 C11         -2.4670     0.1290    -1.2390 cd         1 KJ2      -0.119000
     12 N12         -3.9880     0.3920    -2.9530 nc         1 KJ2      -0.515800
     13 C13         -3.8140     0.3470    -1.6420 cd         1 KJ2       0.244900
     14 N14         -2.7050     0.2040    -3.4330 na         1 KJ2       0.000800
     15 C15         -1.9830     0.1320     0.1650 ca         1 KJ2      -0.020000
     16 C16         -2.9090    -0.0570     1.2150 ca         1 KJ2      -0.067000
     17 C17         -2.4900    -0.0550     2.5570 ca         1 KJ2      -0.174000
     18 C18         -0.2080     0.3510     1.8480 ca         1 KJ2      -0.174000
     19 C19         -0.6280     0.3480     0.5050 ca         1 KJ2      -0.067000
     20 C20         -1.1430     0.1440     2.8820 ca         1 KJ2       0.140100
     21 O21         -0.7900     0.1360     4.2160 os         1 KJ2      -0.348100
     22 C22          0.5660     0.3320     4.6510 c3         1 KJ2       0.165600
     23 C23          0.5810     0.2560     6.1880 c3         1 KJ2      -0.085400
     24 C24          1.9910     0.4550     6.7730 c3         1 KJ2       0.150800
     25 N25          1.9840     0.3690     8.2450 n8         1 KJ2      -0.992200
     26 H3           2.0780    -2.5910    -1.9900 ha         1 KJ2       0.138000
     27 H6           0.0270     1.6750    -3.5530 ha         1 KJ2       0.135000
     28 H7           0.0710    -3.1700    -1.3530 ho         1 KJ2       0.472000
     29 H8           4.1380    -0.1340    -3.5330 ho         1 KJ2       0.484000
     30 H13         -4.6770     0.5010    -1.0070 h4         1 KJ2       0.038100
     31 H14         -2.5120     0.1820    -4.4330 hn         1 KJ2       0.371000
     32 H16         -3.9600    -0.2260     1.0000 ha         1 KJ2       0.114000
     33 H17         -3.2170    -0.2120     3.3500 ha         1 KJ2       0.119500
     34 H18          0.8420     0.5240     2.0630 ha         1 KJ2       0.119500
     35 H19          0.1150     0.5490    -0.2570 ha         1 KJ2       0.114000
     36 H221         0.9380     1.3140     4.3290 h1         1 KJ2       0.031200
     37 H222         1.2210    -0.4470     4.2390 h1         1 KJ2       0.031200
     38 H231         0.1920    -0.7200     6.5020 hc         1 KJ2       0.063200
     39 H232        -0.0930     1.0230     6.5900 hc         1 KJ2       0.063200
     40 H241         2.3810     1.4400     6.4790 h1         1 KJ2       0.026700
     41 H242         2.6660    -0.3180     6.3800 h1         1 KJ2       0.026700
     42 H251         2.9320     0.5560     8.5960 hn         1 KJ2       0.393500
     43 H252         1.4310     1.1480     8.6240 hn         1 KJ2       0.393500
@<TRIPOS>BOND
     1     1     2 ar  
     2     1     3 ar  
     3     1     8 1   
     4     2     6 ar  
     5     2     9 1   
     6     3     4 ar  
     7     3    26 1   
     8     4     5 ar  
     9     4     7 1   
    10     5     6 ar  
    11     5    10 1   
    12     6    27 1   
    13     7    28 1   
    14     8    29 1   
    15    10    11 2   
    16    10    14 1   
    17    11    13 1   
    18    11    15 1   
    19    12    13 2   
    20    12    14 1   
    21    13    30 1   
    22    14    31 1   
    23    15    16 ar  
    24    15    19 ar  
    25    16    17 ar  
    26    16    32 1   
    27    17    20 ar  
    28    17    33 1   
    29    18    19 ar  
    30    18    20 ar  
    31    18    34 1   
    32    19    35 1   
    33    20    21 1   
    34    21    22 1   
    35    22    23 1   
    36    22    36 1   
    37    22    37 1   
    38    23    24 1   
    39    23    38 1   
    40    23    39 1   
    41    24    25 1   
    42    24    40 1   
    43    24    41 1   
    44    25    42 1   
    45    25    43 1   
@<TRIPOS>SUBSTRUCTURE
     1 KJ2         1 TEMP              0 ****  ****    0 ROOT
