@<TRIPOS>MOLECULE
KJ2
   43    45     1     0     0
SMALL
bcc


@<TRIPOS>ATOM
      1 C1           2.3970    -0.8060    -3.1070 ca         1 KJ2       0.211100
      2 C2           1.8110     0.3470    -3.6310 ca         1 KJ2      -0.120600
      3 C3           1.6210    -1.6490    -2.3200 ca         1 KJ2      -0.275000
      4 C4           0.2900    -1.3550    -2.0590 ca         1 KJ2       0.216100
      5 C5          -0.2920    -0.1860    -2.5720 ca         1 KJ2      -0.107000
      6 C6           0.4900     0.6480    -3.3620 ca         1 KJ2      -0.032000
      7 O7          -0.4860    -2.1650    -1.3280 oh         1 KJ2      -0.462100
      8 O8           3.6710    -1.1490    -3.3220 oh         1 KJ2      -0.483100
      9 CL9          2.7680     1.4090    -4.6160 cl         1 KJ2      -0.108400
     10 C10         -1.6920     0.1440    -2.3050 cc         1 KJ2      -0.022300
     11 C11         -2.4140     0.2910    -1.1300 cd         1 KJ2      -0.184300
     12 N12         -3.7840     0.6870    -2.8860 nc         1 KJ2      -0.515800
     13 C13         -3.7110     0.6260    -1.5700 cd         1 KJ2       0.310200
     14 N14         -2.5620     0.3960    -3.3050 na         1 KJ2       0.000400
     15 C15         -1.9540     0.1730     0.2530 ca         1 KJ2      -0.020000
     16 C16         -2.8070    -0.3140     1.2470 ca         1 KJ2      -0.085000
     17 C17         -2.3990    -0.4120     2.5640 ca         1 KJ2      -0.192000
     18 C18         -0.2430     0.4580     1.9540 ca         1 KJ2      -0.192000
     19 C19         -0.6730     0.5580     0.6380 ca         1 KJ2      -0.085000
     20 C20         -1.1080    -0.0270     2.9330 ca         1 KJ2       0.140100
     21 O21         -0.7940    -0.1520     4.2370 os         1 KJ2      -0.324900
     22 C22          0.4810     0.2870     4.6800 c3         1 KJ2       0.142400
     23 C23          0.5420     0.1350     6.1860 c3         1 KJ2      -0.085400
     24 C24          1.8890     0.5850     6.7320 c3         1 KJ2       0.150800
     25 N25          1.9270     0.4410     8.1800 n8         1 KJ2      -0.881800
     26 H3           2.0710    -2.5520    -1.9230 ha         1 KJ2       0.156000
     27 H6           0.0630     1.5600    -3.7590 ha         1 KJ2       0.153000
     28 H7           0.0190    -2.9190    -1.0040 ho         1 KJ2       0.433000
     29 H8           4.1190    -0.5000    -3.8810 ho         1 KJ2       0.445000
     30 H13         -4.5780     0.8430    -0.9640 h4         1 KJ2       0.038100
     31 H14         -2.3690     0.3430    -4.2940 hn         1 KJ2       0.320700
     32 H16         -3.8080    -0.6350     0.9870 ha         1 KJ2       0.132000
     33 H17         -3.0780    -0.7920     3.3170 ha         1 KJ2       0.137500
     34 H18          0.7630     0.7730     2.1950 ha         1 KJ2       0.137500
     35 H19          0.0140     0.9590    -0.0970 ha         1 KJ2       0.132000
     36 H221         0.6400     1.3340     4.3980 h1         1 KJ2       0.031200
     37 H222         1.2740    -0.3040     4.2060 h1         1 KJ2       0.031200
     38 H231         0.3710    -0.9090     6.4630 hc         1 KJ2       0.063200
     39 H232        -0.2550     0.7280     6.6430 hc         1 KJ2       0.063200
     40 H241         2.0930     1.6090     6.3900 h1         1 KJ2       0.026700
     41 H242         2.6770    -0.0420     6.3060 h1         1 KJ2       0.026700
     42 H251         2.8490     0.6860     8.5170 hn         1 KJ2       0.338300
     43 H252         1.2990     1.1190     8.5960 hn         1 KJ2       0.338300
@<TRIPOS>BOND
     1     1     2 ar  
     2     1     3 ar  
     3     1     8 1   
     4     2     6 ar  
     5     2     9 1   
     6     3     4 ar  
     7     3    26 1   
     8     4     5 ar  
     9     4     7 1   
    10     5     6 ar  
    11     5    10 1   
    12     6    27 1   
    13     7    28 1   
    14     8    29 1   
    15    10    11 2   
    16    10    14 1   
    17    11    13 1   
    18    11    15 1   
    19    12    13 2   
    20    12    14 1   
    21    13    30 1   
    22    14    31 1   
    23    15    16 ar  
    24    15    19 ar  
    25    16    17 ar  
    26    16    32 1   
    27    17    20 ar  
    28    17    33 1   
    29    18    19 ar  
    30    18    20 ar  
    31    18    34 1   
    32    19    35 1   
    33    20    21 1   
    34    21    22 1   
    35    22    23 1   
    36    22    36 1   
    37    22    37 1   
    38    23    24 1   
    39    23    38 1   
    40    23    39 1   
    41    24    25 1   
    42    24    40 1   
    43    24    41 1   
    44    25    42 1   
    45    25    43 1   
@<TRIPOS>SUBSTRUCTURE
     1 KJ2         1 TEMP              0 ****  ****    0 ROOT
