@<TRIPOS>MOLECULE
KJ3
   63    66     1     0     0
SMALL
No Charge or Current Charge


@<TRIPOS>ATOM
      1 C1          90.5710    -8.7600    17.3170 ca         1 KJ3       0.224000
      2 C2          90.8430    -7.5120    16.7490 ca         1 KJ3      -0.270000
      3 C3          91.9020    -8.6120    14.8350 ca         1 KJ3      -0.179500
      4 C4          91.6240    -9.8630    15.4340 ca         1 KJ3      -0.020000
      5 C5          91.5140    -7.4260    15.5090 ca         1 KJ3       0.221100
      6 C6          90.9580    -9.9340    16.6660 ca         1 KJ3      -0.206000
      7 F7          89.9300    -8.8310    18.5040 f          1 KJ3      -0.181000
      8 O8          91.7650    -6.2000    14.9240 os         1 KJ3      -0.310100
      9 C9          91.4130    -4.9530    15.5430 c3         1 KJ3       0.165600
     10 C10         91.8670    -3.8260    14.6020 c3         1 KJ3      -0.093100
     11 C11         92.6450    -8.5900    13.5660 cc         1 KJ3       0.508500
     12 N12         93.4280    -7.6280    13.0980 nd         1 KJ3      -0.653000
     13 C13         93.8850    -8.1280    11.8980 cd         1 KJ3       0.250300
     14 C14         93.3490    -9.3770    11.7030 cc         1 KJ3       0.126300
     15 O15         92.5600    -9.6890    12.7600 os         1 KJ3      -0.276000
     16 C16         93.4870   -10.3660    10.5790 c3         1 KJ3      -0.113400
     17 C17         94.8150    -7.3460    11.0080 c3         1 KJ3      -0.093700
     18 C18         96.2730    -7.3920    11.4950 c3         1 KJ3       0.170600
     19 O19         96.6900    -8.7690    11.5120 os         1 KJ3      -0.359100
     20 C20         97.9480    -9.1620    11.9340 ca         1 KJ3       0.129100
     21 C21         98.9260    -8.2170    12.3030 ca         1 KJ3      -0.190000
     22 C22        100.5180   -10.0080    12.7900 ca         1 KJ3      -0.056300
     23 C23        100.1940    -8.6400    12.7250 ca         1 KJ3      -0.057000
     24 C24         98.2540   -10.5430    11.9960 ca         1 KJ3      -0.051000
     25 C25         99.5390   -10.9720    12.4250 ca         1 KJ3       0.008000
     26 C26         98.8360   -13.3020    12.1200 ca         1 KJ3      -0.122000
     27 C27         97.5720   -12.8740    11.6970 ca         1 KJ3      -0.140000
     28 C28         99.8120   -12.3610    12.4820 ca         1 KJ3      -0.090000
     29 C29         97.2810   -11.5040    11.6360 ca         1 KJ3      -0.081000
     30 C30        101.9240   -10.3920    13.2660 c3         1 KJ3      -0.050100
     31 C31        102.8690   -10.8380    12.1100 c3         1 KJ3       0.023300
     32 C32        103.2450    -9.6210    11.1870 c          1 KJ3       0.729000
     33 O33        104.0460   -11.4720    12.6960 os         1 KJ3      -0.423000
     34 C34        103.8770   -12.8250    13.1610 c3         1 KJ3       0.147900
     35 O35        102.4710    -9.3220    10.2860 o          1 KJ3      -0.716500
     36 O36        104.3440    -9.0910    11.3110 o          1 KJ3      -0.716500
     37 H1          90.5230    -6.6260    17.2870 ha         1 KJ3       0.134000
     38 H2          91.9310   -10.7890    14.9490 ha         1 KJ3       0.133000
     39 H3          90.7460   -10.8990    17.1190 ha         1 KJ3       0.134000
     40 H4          90.3280    -4.8850    15.6970 h1         1 KJ3       0.033200
     41 H5          91.9170    -4.8430    16.5120 h1         1 KJ3       0.033200
     42 H6          91.6210    -2.8490    15.0330 hc         1 KJ3       0.050367
     43 H7          92.9510    -3.8700    14.4420 hc         1 KJ3       0.050367
     44 H8          91.3650    -3.9100    13.6300 hc         1 KJ3       0.050367
     45 H9          93.5370   -11.3910    10.9660 hc         1 KJ3       0.055700
     46 H10         92.6290   -10.3010     9.9000 hc         1 KJ3       0.055700
     47 H11         94.3960   -10.1810     9.9970 hc         1 KJ3       0.055700
     48 H12         94.7680    -7.7240     9.9800 hc         1 KJ3       0.057200
     49 H13         94.4930    -6.3000    10.9660 hc         1 KJ3       0.057200
     50 H14         96.9020    -6.8030    10.8150 h1         1 KJ3       0.042700
     51 H15         96.3370    -6.9540    12.5000 h1         1 KJ3       0.042700
     52 H16         98.7260    -7.1510    12.2670 ha         1 KJ3       0.106000
     53 H17        100.9350    -7.8920    13.0020 ha         1 KJ3       0.130000
     54 H18         99.0620   -14.3650    12.1690 ha         1 KJ3       0.097000
     55 H19         96.8150   -13.6030    11.4170 ha         1 KJ3       0.093000
     56 H20        100.7780   -12.7340    12.8060 ha         1 KJ3       0.118000
     57 H21         96.2930   -11.1960    11.3070 ha         1 KJ3       0.108000
     58 H22        102.3930    -9.5460    13.7820 hc         1 KJ3       0.038700
     59 H23        101.8400   -11.1710    14.0300 hc         1 KJ3       0.038700
     60 H24        102.3430   -11.5620    11.4740 h1         1 KJ3       0.025700
     61 H25        104.8400   -13.2300    13.4950 h1         1 KJ3       0.002367
     62 H26        103.1810   -12.8770    14.0060 h1         1 KJ3       0.002367
     63 H27        103.4980   -13.4670    12.3550 h1         1 KJ3       0.002367
@<TRIPOS>BOND
     1     1     2 ar  
     2     1     6 ar  
     3     1     7 1   
     4     2     5 ar  
     5     2    37 1   
     6     3     4 ar  
     7     3     5 ar  
     8     3    11 1   
     9     4     6 ar  
    10     4    38 1   
    11     5     8 1   
    12     6    39 1   
    13     8     9 1   
    14     9    10 1   
    15     9    40 1   
    16     9    41 1   
    17    10    42 1   
    18    10    43 1   
    19    10    44 1   
    20    11    12 2   
    21    11    15 1   
    22    12    13 1   
    23    13    14 2   
    24    13    17 1   
    25    14    15 1   
    26    14    16 1   
    27    16    45 1   
    28    16    46 1   
    29    16    47 1   
    30    17    18 1   
    31    17    48 1   
    32    17    49 1   
    33    18    19 1   
    34    18    50 1   
    35    18    51 1   
    36    19    20 1   
    37    20    21 ar  
    38    20    24 ar  
    39    21    23 ar  
    40    21    52 1   
    41    22    23 ar  
    42    22    25 ar  
    43    22    30 1   
    44    23    53 1   
    45    24    25 ar  
    46    24    29 ar  
    47    25    28 ar  
    48    26    27 ar  
    49    26    28 ar  
    50    26    54 1   
    51    27    29 ar  
    52    27    55 1   
    53    28    56 1   
    54    29    57 1   
    55    30    31 1   
    56    30    58 1   
    57    30    59 1   
    58    31    32 1   
    59    31    33 1   
    60    31    60 1   
    61    32    35 1   
    62    32    36 1   
    63    33    34 1   
    64    34    61 1   
    65    34    62 1   
    66    34    63 1   
@<TRIPOS>SUBSTRUCTURE
     1 KJ3         1 TEMP              0 ****  ****    0 ROOT
