@<TRIPOS>MOLECULE
KJ3
   63    66     1     0     0
SMALL
abcg2


@<TRIPOS>ATOM
      1 C1          90.9030    -8.8410    17.1670 ca         1 KJ3       0.224000
      2 C2          91.3900    -7.6250    16.7330 ca         1 KJ3      -0.270000
      3 C3          92.0380    -8.6860    14.6490 ca         1 KJ3      -0.179500
      4 C4          91.5210    -9.8850    15.1400 ca         1 KJ3      -0.020000
      5 C5          91.9620    -7.5360    15.4640 ca         1 KJ3       0.221100
      6 C6          90.9490    -9.9840    16.3970 ca         1 KJ3      -0.206000
      7 F7          90.3660    -8.9040    18.3930 f          1 KJ3      -0.181000
      8 O8          92.4430    -6.3990    14.9660 os         1 KJ3      -0.310100
      9 C9          92.4230    -5.2100    15.7500 c3         1 KJ3       0.165600
     10 C10         93.0470    -4.1070    14.9300 c3         1 KJ3      -0.093100
     11 C11         92.6500    -8.6570    13.3260 cc         1 KJ3       0.508500
     12 N12         93.3990    -7.7680    12.7650 nd         1 KJ3      -0.653000
     13 C13         93.7230    -8.2870    11.5280 cd         1 KJ3       0.250300
     14 C14         93.1410    -9.5000    11.3960 cc         1 KJ3       0.126300
     15 O15         92.4500    -9.7330    12.5440 os         1 KJ3      -0.276000
     16 C16         93.1230   -10.5380    10.3450 c3         1 KJ3      -0.113400
     17 C17         94.6380    -7.5640    10.6030 c3         1 KJ3      -0.093700
     18 C18         96.0610    -7.5240    11.1320 c3         1 KJ3       0.170600
     19 O19         96.5010    -8.8630    11.2570 os         1 KJ3      -0.359100
     20 C20         97.7040    -9.1180    11.7990 ca         1 KJ3       0.129100
     21 C21         98.6000    -8.1640    12.2040 ca         1 KJ3      -0.190000
     22 C22        100.2000    -9.8630    12.9180 ca         1 KJ3      -0.056300
     23 C23         99.8360    -8.5520    12.7590 ca         1 KJ3      -0.057000
     24 C24         98.0230   -10.5020    11.9460 ca         1 KJ3      -0.051000
     25 C25         99.2760   -10.8700    12.5060 ca         1 KJ3       0.008000
     26 C26         98.6630   -13.2080    12.2520 ca         1 KJ3      -0.122000
     27 C27         97.4260   -12.8350    11.6970 ca         1 KJ3      -0.140000
     28 C28         99.5600   -12.2510    12.6440 ca         1 KJ3      -0.090000
     29 C29         97.1140   -11.5100    11.5500 ca         1 KJ3      -0.081000
     30 C30        101.5420   -10.2120    13.4970 c3         1 KJ3      -0.050100
     31 C31        102.5740   -10.6110    12.4280 c3         1 KJ3       0.023300
     32 C32        102.8370    -9.4190    11.4780 c          1 KJ3       0.729000
     33 O33        103.8020   -10.9790    13.0280 os         1 KJ3      -0.423000
     34 C34        103.8110   -12.2830    13.5460 c3         1 KJ3       0.147900
     35 O35        102.4070    -9.5330    10.3150 o          1 KJ3      -0.716500
     36 O36        103.4380    -8.4470    11.9740 o          1 KJ3      -0.716500
     37 H1          91.3160    -6.7660    17.3850 ha         1 KJ3       0.134000
     38 H2          91.5730   -10.7780    14.5340 ha         1 KJ3       0.133000
     39 H3          90.5620   -10.9240    16.7630 ha         1 KJ3       0.134000
     40 H4          91.3940    -4.9540    16.0200 h1         1 KJ3       0.033200
     41 H5          92.9840    -5.3630    16.6770 h1         1 KJ3       0.033200
     42 H6          93.0520    -3.1860    15.5110 hc         1 KJ3       0.050367
     43 H7          94.0780    -4.3420    14.6650 hc         1 KJ3       0.050367
     44 H8          92.4850    -3.9220    14.0140 hc         1 KJ3       0.050367
     45 H9          93.5950   -11.4620    10.6830 hc         1 KJ3       0.055700
     46 H10         92.1070   -10.7790    10.0300 hc         1 KJ3       0.055700
     47 H11         93.6690   -10.1880     9.4710 hc         1 KJ3       0.055700
     48 H12         94.6250    -8.0260     9.6140 hc         1 KJ3       0.057200
     49 H13         94.3030    -6.5330    10.4720 hc         1 KJ3       0.057200
     50 H14         96.7080    -6.9680    10.4450 h1         1 KJ3       0.042700
     51 H15         96.0870    -7.0170    12.1030 h1         1 KJ3       0.042700
     52 H16         98.3850    -7.1090    12.1060 ha         1 KJ3       0.106000
     53 H17        100.5230    -7.7730    13.0660 ha         1 KJ3       0.130000
     54 H18         98.9070   -14.2560    12.3700 ha         1 KJ3       0.097000
     55 H19         96.7210   -13.5960    11.3890 ha         1 KJ3       0.093000
     56 H20        100.5040   -12.5610    13.0710 ha         1 KJ3       0.118000
     57 H21         96.1590   -11.2330    11.1250 ha         1 KJ3       0.108000
     58 H22        101.9360    -9.3500    14.0380 hc         1 KJ3       0.038700
     59 H23        101.4330   -11.0140    14.2330 hc         1 KJ3       0.038700
     60 H24        102.1830   -11.4550    11.8430 h1         1 KJ3       0.025700
     61 H25        104.8050   -12.4760    13.9510 h1         1 KJ3       0.002367
     62 H26        103.0850   -12.4320    14.3540 h1         1 KJ3       0.002367
     63 H27        103.6050   -13.0340    12.7730 h1         1 KJ3       0.002367
@<TRIPOS>BOND
     1     1     2 ar  
     2     1     6 ar  
     3     1     7 1   
     4     2     5 ar  
     5     2    37 1   
     6     3     4 ar  
     7     3     5 ar  
     8     3    11 1   
     9     4     6 ar  
    10     4    38 1   
    11     5     8 1   
    12     6    39 1   
    13     8     9 1   
    14     9    10 1   
    15     9    40 1   
    16     9    41 1   
    17    10    42 1   
    18    10    43 1   
    19    10    44 1   
    20    11    12 2   
    21    11    15 1   
    22    12    13 1   
    23    13    14 2   
    24    13    17 1   
    25    14    15 1   
    26    14    16 1   
    27    16    45 1   
    28    16    46 1   
    29    16    47 1   
    30    17    18 1   
    31    17    48 1   
    32    17    49 1   
    33    18    19 1   
    34    18    50 1   
    35    18    51 1   
    36    19    20 1   
    37    20    21 ar  
    38    20    24 ar  
    39    21    23 ar  
    40    21    52 1   
    41    22    23 ar  
    42    22    25 ar  
    43    22    30 1   
    44    23    53 1   
    45    24    25 ar  
    46    24    29 ar  
    47    25    28 ar  
    48    26    27 ar  
    49    26    28 ar  
    50    26    54 1   
    51    27    29 ar  
    52    27    55 1   
    53    28    56 1   
    54    29    57 1   
    55    30    31 1   
    56    30    58 1   
    57    30    59 1   
    58    31    32 1   
    59    31    33 1   
    60    31    60 1   
    61    32    35 1   
    62    32    36 1   
    63    33    34 1   
    64    34    61 1   
    65    34    62 1   
    66    34    63 1   
@<TRIPOS>SUBSTRUCTURE
     1 KJ3         1 TEMP              0 ****  ****    0 ROOT
