@<TRIPOS>MOLECULE
KJ5
   23    23     1     0     0
SMALL
No Charge or Current Charge


@<TRIPOS>ATOM
      1 C4          -2.8410     3.9310    86.0160 ca         1 KJ5       0.249000
      2 C5          -2.7550     2.6500    85.4270 ca         1 KJ5      -0.322500
      3 C6          -2.2110     2.5390    84.1300 ca         1 KJ5       0.249000
      4 C7          -1.7770     3.6830    83.4310 ca         1 KJ5       0.111500
      5 N           -1.8870     0.4720    86.6980 n8         1 KJ5      -1.026100
      6 C            0.0850     6.5170    83.5220 c3         1 KJ5      -0.087100
      7 O           -3.9140     1.4830    87.5740 o          1 KJ5      -0.526000
      8 C2          -1.8760     4.9650    84.0110 ca         1 KJ5      -0.055300
      9 C3          -2.4070     5.0740    85.3140 ca         1 KJ5       0.111500
     10 F           -2.4970     6.2900    85.9050 f          1 KJ5      -0.149500
     11 F1          -3.3370     4.1000    87.2630 f          1 KJ5      -0.123000
     12 F2          -2.0770     1.3310    83.5320 f          1 KJ5      -0.123000
     13 F3          -1.2510     3.5440    82.1890 f          1 KJ5      -0.149500
     14 O1          -3.8890     0.2200    85.3610 o          1 KJ5      -0.526000
     15 S           -3.2950     1.1790    86.2880 sy         1 KJ5       1.163600
     16 H1          -2.0390     0.3370    87.6950 hn         1 KJ5       0.487000
     17 H2          -2.0450    -0.4640    86.3310 hn         1 KJ5       0.487000
     18 H3           0.3970     7.4100    82.9670 hc         1 KJ5       0.043367
     19 H4           0.2550     6.7000    84.5900 hc         1 KJ5       0.043367
     20 H5           0.7190     5.6790    83.2090 hc         1 KJ5       0.043367
     21 H6          -2.0010     7.0820    83.5280 hc         1 KJ5       0.067200
     22 H7          -1.5460     6.0810    82.1730 hc         1 KJ5       0.067200
     23 C1          -1.4000     6.2070    83.2530 c3         1 KJ5      -0.036100
@<TRIPOS>BOND
     1     1     2 ar  
     2     1     9 ar  
     3     1    11 1   
     4     2     3 ar  
     5     2    15 1   
     6     3     4 ar  
     7     3    12 1   
     8     4     8 ar  
     9     4    13 1   
    10     5    15 1   
    11     5    16 1   
    12     5    17 1   
    13     6    18 1   
    14     6    19 1   
    15     6    20 1   
    16     6    23 1   
    17     7    15 2   
    18     8     9 ar  
    19     8    23 1   
    20     9    10 1   
    21    14    15 2   
    22    21    23 1   
    23    22    23 1   
@<TRIPOS>SUBSTRUCTURE
     1 KJ5         1 TEMP              0 ****  ****    0 ROOT
