@<TRIPOS>MOLECULE
KJ5
   23    23     1     0     0
SMALL
bcc


@<TRIPOS>ATOM
      1 C4          -2.8960     3.9460    85.9960 ca         1 KJ5       0.213900
      2 C5          -2.7710     2.6740    85.4560 ca         1 KJ5      -0.322500
      3 C6          -2.1970     2.5580    84.1950 ca         1 KJ5       0.213900
      4 C7          -1.7680     3.6710    83.5060 ca         1 KJ5       0.076400
      5 N           -1.9230     0.4060    86.4930 n8         1 KJ5      -0.915700
      6 C            0.0720     6.4420    83.5790 c3         1 KJ5      -0.087100
      7 O           -3.9570     1.5920    87.5270 o          1 KJ5      -0.596800
      8 C2          -1.8950     4.9510    84.0260 ca         1 KJ5      -0.055300
      9 C3          -2.4590     5.0510    85.2840 ca         1 KJ5       0.076400
     10 F           -2.5950     6.2490    85.8520 f          1 KJ5      -0.114400
     11 F1          -3.4210     4.1570    87.1920 f          1 KJ5      -0.087900
     12 F2          -2.0400     1.3650    83.6380 f          1 KJ5      -0.087900
     13 F3          -1.2160     3.5000    82.3050 f          1 KJ5      -0.114400
     14 O1          -4.1200     0.4260    85.3250 o          1 KJ5      -0.596800
     15 S           -3.3430     1.1960    86.2760 sy         1 KJ5       1.305200
     16 H1          -1.4300     0.6800    87.3350 hn         1 KJ5       0.431800
     17 H2          -2.0250    -0.6010    86.4280 hn         1 KJ5       0.431800
     18 H3           0.4020     7.3180    83.0220 hc         1 KJ5       0.043367
     19 H4           0.2320     6.6380    84.6390 hc         1 KJ5       0.043367
     20 H5           0.7070     5.6040    83.2910 hc         1 KJ5       0.043367
     21 H6          -2.0050     7.0220    83.5510 hc         1 KJ5       0.067200
     22 H7          -1.5400     6.0070    82.2120 hc         1 KJ5       0.067200
     23 C1          -1.4000     6.1570    83.2820 c3         1 KJ5      -0.036100
@<TRIPOS>BOND
     1     1     2 ar  
     2     1     9 ar  
     3     1    11 1   
     4     2     3 ar  
     5     2    15 1   
     6     3     4 ar  
     7     3    12 1   
     8     4     8 ar  
     9     4    13 1   
    10     5    15 1   
    11     5    16 1   
    12     5    17 1   
    13     6    18 1   
    14     6    19 1   
    15     6    20 1   
    16     6    23 1   
    17     7    15 2   
    18     8     9 ar  
    19     8    23 1   
    20     9    10 1   
    21    14    15 2   
    22    21    23 1   
    23    22    23 1   
@<TRIPOS>SUBSTRUCTURE
     1 KJ5         1 TEMP              0 ****  ****    0 ROOT
