@<TRIPOS>MOLECULE
KJ6
   15    15     1     0     0
SMALL
No Charge or Current Charge


@<TRIPOS>ATOM
      1 C4           7.0040   -36.7720    12.0290 cc         1 KJ6       0.240100
      2 C6           6.0810   -35.9420    11.5030 cd         1 KJ6      -0.420200
      3 C7           5.2480   -35.0860    12.3430 c          1 KJ6       0.686300
      4 C2           6.3620   -35.9800    14.2330 cd         1 KJ6       0.201900
      5 C3           7.1410   -36.7850    13.4320 cc         1 KJ6      -0.402000
      6 O5           7.7760   -37.5650    11.2800 oh         1 KJ6      -0.512100
      7 O8           4.4190   -34.3440    11.8410 o          1 KJ6      -0.492000
      8 O9           5.4120   -35.1310    13.7100 os         1 KJ6      -0.348200
      9 H15          5.9080   -35.8650    10.4390 ha         1 KJ6       0.228000
     10 H11          5.9250   -36.7990    16.1730 hc         1 KJ6       0.067700
     11 H12          7.4990   -35.9930    16.0630 hc         1 KJ6       0.067700
     12 H10          6.0170   -35.0300    16.1430 hc         1 KJ6       0.067700
     13 H13          7.8740   -37.4420    13.8910 ha         1 KJ6       0.202000
     14 H14          8.3520   -38.0590    11.8980 ho         1 KJ6       0.477000
     15 C1           6.4550   -35.9480    15.7330 c3         1 KJ6      -0.064900
@<TRIPOS>BOND
     1     1     2 2   
     2     1     5 1   
     3     1     6 1   
     4     2     3 1   
     5     2     9 1   
     6     3     7 2   
     7     3     8 1   
     8     4     5 2   
     9     4     8 1   
    10     4    15 1   
    11     5    13 1   
    12     6    14 1   
    13    10    15 1   
    14    11    15 1   
    15    12    15 1   
@<TRIPOS>SUBSTRUCTURE
     1 KJ6         1 TEMP              0 ****  ****    0 ROOT
