@<TRIPOS>MOLECULE
KJ6
   15    15     1     0     0
SMALL
abcg2


@<TRIPOS>ATOM
      1 C4           7.0350   -36.7320    12.0570 cc         1 KJ6       0.240100
      2 C6           6.0470   -35.9660    11.5070 cd         1 KJ6      -0.420200
      3 C7           5.1890   -35.1880    12.3320 c          1 KJ6       0.686300
      4 C2           6.3790   -36.0230    14.2380 cd         1 KJ6       0.201900
      5 C3           7.2070   -36.7610    13.4740 cc         1 KJ6      -0.402000
      6 O5           7.8240   -37.4400    11.2600 oh         1 KJ6      -0.512100
      7 O8           4.2880   -34.4600    11.9860 o          1 KJ6      -0.492000
      8 O9           5.4130   -35.2740    13.6930 os         1 KJ6      -0.348200
      9 H15          5.8970   -35.9260    10.4370 ha         1 KJ6       0.228000
     10 H11          5.4830   -36.2770    16.1550 hc         1 KJ6       0.067700
     11 H12          7.2290   -36.5570    16.1110 hc         1 KJ6       0.067700
     12 H10          6.5880   -34.9110    16.0430 hc         1 KJ6       0.067700
     13 H13          7.9810   -37.3570    13.9390 ha         1 KJ6       0.202000
     14 H14          8.4880   -37.9300    11.7610 ho         1 KJ6       0.477000
     15 C1           6.4250   -35.9400    15.7190 c3         1 KJ6      -0.064900
@<TRIPOS>BOND
     1     1     2 2   
     2     1     5 1   
     3     1     6 1   
     4     2     3 1   
     5     2     9 1   
     6     3     7 2   
     7     3     8 1   
     8     4     5 2   
     9     4     8 1   
    10     4    15 1   
    11     5    13 1   
    12     6    14 1   
    13    10    15 1   
    14    11    15 1   
    15    12    15 1   
@<TRIPOS>SUBSTRUCTURE
     1 KJ6         1 TEMP              0 ****  ****    0 ROOT
