@<TRIPOS>MOLECULE
KJ7
   26    27     1     0     0
SMALL
No Charge or Current Charge


@<TRIPOS>ATOM
      1 C02         -2.6160    -0.5060     0.0910 c2         1 KJ7       0.748100
      2 C04         -2.4530     1.6310    -0.1490 c5         1 KJ7       0.109800
      3 C05         -1.0630     1.0670     0.2980 c5         1 KJ7       0.168500
      4 C06         -0.0040     1.0170    -0.8340 c3         1 KJ7      -0.065100
      5 C07          1.3030     0.3450    -0.4270 ca         1 KJ7      -0.084300
      6 C08          2.1760     0.9820     0.4770 ca         1 KJ7      -0.111500
      7 C09          3.3800     0.3640     0.8560 ca         1 KJ7      -0.107500
      8 C10          3.7200    -0.8940     0.3330 ca         1 KJ7      -0.110000
      9 C11          2.8550    -1.5350    -0.5700 ca         1 KJ7      -0.107500
     10 C12          1.6510    -0.9170    -0.9500 ca         1 KJ7      -0.111500
     11 N01         -2.9480    -1.7630     0.2870 nv         1 KJ7      -1.015200
     12 N03         -3.3100     0.4360    -0.3680 n2         1 KJ7      -0.696900
     13 N13         -1.4580    -0.2990     0.7060 nu         1 KJ7      -0.900400
     14 H1          -2.8900     2.2670     0.6340 h1         1 KJ7       0.056700
     15 H2          -2.3690     2.2360    -1.0630 h1         1 KJ7       0.056700
     16 H3          -0.6520     1.6530     1.1330 h1         1 KJ7       0.075700
     17 H4          -0.4280     0.5140    -1.7120 hc         1 KJ7       0.060700
     18 H5           0.2090     2.0420    -1.1630 hc         1 KJ7       0.060700
     19 H6           1.9210     1.9570     0.8870 ha         1 KJ7       0.112500
     20 H7           4.0490     0.8610     1.5550 ha         1 KJ7       0.113000
     21 H8           4.6520    -1.3730     0.6270 ha         1 KJ7       0.113000
     22 H9           3.1180    -2.5090    -0.9760 ha         1 KJ7       0.113000
     23 H10          0.9880    -1.4210    -1.6500 ha         1 KJ7       0.112500
     24 H11         -2.6560    -2.0610     1.2060 hn         1 KJ7       0.468500
     25 H12         -3.9310    -1.9130     0.1090 hn         1 KJ7       0.468500
     26 H13         -0.8010    -1.0530     0.5430 hn         1 KJ7       0.470000
@<TRIPOS>BOND
     1     1    11 1   
     2     1    12 2   
     3     1    13 1   
     4     2     3 1   
     5     2    12 1   
     6     2    14 1   
     7     2    15 1   
     8     3     4 1   
     9     3    13 1   
    10     3    16 1   
    11     4     5 1   
    12     4    17 1   
    13     4    18 1   
    14     5     6 ar  
    15     5    10 ar  
    16     6     7 ar  
    17     6    19 1   
    18     7     8 ar  
    19     7    20 1   
    20     8     9 ar  
    21     8    21 1   
    22     9    10 ar  
    23     9    22 1   
    24    10    23 1   
    25    11    24 1   
    26    11    25 1   
    27    13    26 1   
@<TRIPOS>SUBSTRUCTURE
     1 KJ7         1 TEMP              0 ****  ****    0 ROOT
