@<TRIPOS>MOLECULE
KJ7
   26    27     1     0     0
SMALL
bcc


@<TRIPOS>ATOM
      1 C02         -2.5480    -0.5600     0.1240 c2         1 KJ7       0.748100
      2 C04         -2.4010     1.6110    -0.0890 c5         1 KJ7       0.109800
      3 C05         -1.0170     1.0960     0.3580 c5         1 KJ7       0.168500
      4 C06         -0.0040     1.1000    -0.7950 c3         1 KJ7      -0.065100
      5 C07          1.2810     0.4110    -0.4350 ca         1 KJ7      -0.084300
      6 C08          2.2600     1.0750     0.3030 ca         1 KJ7      -0.129500
      7 C09          3.4230     0.4260     0.6910 ca         1 KJ7      -0.125500
      8 C10          3.6270    -0.9060     0.3480 ca         1 KJ7      -0.128000
      9 C11          2.6620    -1.5780    -0.3880 ca         1 KJ7      -0.125500
     10 C12          1.4990    -0.9220    -0.7750 ca         1 KJ7      -0.129500
     11 N01         -2.9290    -1.8660     0.0470 nv         1 KJ7      -0.904800
     12 N03         -3.1860     0.4240    -0.3950 n2         1 KJ7      -0.696900
     13 N13         -1.3800    -0.2470     0.7910 nu         1 KJ7      -0.845200
     14 H1          -2.8750     2.1870     0.7150 h1         1 KJ7       0.056700
     15 H2          -2.3230     2.2810    -0.9490 h1         1 KJ7       0.056700
     16 H3          -0.6150     1.6740     1.1920 h1         1 KJ7       0.075700
     17 H4          -0.4570     0.6230    -1.6700 hc         1 KJ7       0.060700
     18 H5           0.1880     2.1410    -1.0670 hc         1 KJ7       0.060700
     19 H6           2.1120     2.1140     0.5760 ha         1 KJ7       0.130500
     20 H7           4.1730     0.9600     1.2600 ha         1 KJ7       0.131000
     21 H8           4.5340    -1.4130     0.6510 ha         1 KJ7       0.131000
     22 H9           2.8140    -2.6130    -0.6650 ha         1 KJ7       0.131000
     23 H10          0.7560    -1.4540    -1.3600 ha         1 KJ7       0.130500
     24 H11         -2.6040    -2.4760     0.7800 hn         1 KJ7       0.413300
     25 H12         -3.8970    -2.0130    -0.1860 hn         1 KJ7       0.413300
     26 H13         -0.6490    -0.9450     0.8200 hn         1 KJ7       0.414800
@<TRIPOS>BOND
     1     1    11 1   
     2     1    12 2   
     3     1    13 1   
     4     2     3 1   
     5     2    12 1   
     6     2    14 1   
     7     2    15 1   
     8     3     4 1   
     9     3    13 1   
    10     3    16 1   
    11     4     5 1   
    12     4    17 1   
    13     4    18 1   
    14     5     6 ar  
    15     5    10 ar  
    16     6     7 ar  
    17     6    19 1   
    18     7     8 ar  
    19     7    20 1   
    20     8     9 ar  
    21     8    21 1   
    22     9    10 ar  
    23     9    22 1   
    24    10    23 1   
    25    11    24 1   
    26    11    25 1   
    27    13    26 1   
@<TRIPOS>SUBSTRUCTURE
     1 KJ7         1 TEMP              0 ****  ****    0 ROOT
