@<TRIPOS>MOLECULE
KJ8
   70    74     1     0     0
SMALL
abcg2


@<TRIPOS>ATOM
      1 C35        152.8610   119.3380   197.0490 c3         1 KJ8       0.136100
      2 N32        152.5560   120.7610   196.8730 n3         1 KJ8      -0.743600
      3 C34        151.6630   120.9420   195.7230 c3         1 KJ8       0.136100
      4 C31        153.7910   121.5530   196.7390 c3         1 KJ8       0.165800
      5 C30        153.7100   122.9530   197.3630 c3         1 KJ8      -0.160400
      6 C29        152.6630   123.8390   196.7220 c          1 KJ8       0.605100
      7 O33        152.8100   124.3220   195.6030 o          1 KJ8      -0.593100
      8 N28        151.5540   124.0200   197.4890 ns         1 KJ8      -0.147000
      9 C26        150.3310   124.6250   197.1670 ca         1 KJ8      -0.022000
     10 C27        149.4500   124.8250   198.2330 ca         1 KJ8      -0.170000
     11 C25        149.9350   124.9690   195.8740 ca         1 KJ8      -0.134000
     12 C24        148.6530   125.4740   195.6740 ca         1 KJ8      -0.087000
     13 C23        147.7600   125.6260   196.7250 ca         1 KJ8      -0.122000
     14 C16        148.1590   125.3000   198.0250 ca         1 KJ8      -0.002800
     15 C1         147.2400   125.3940   199.1700 cc         1 KJ8      -0.037400
     16 C5         146.9630   124.3410   200.1210 ca         1 KJ8      -0.278800
     17 C2         146.4720   126.4600   199.5590 cd         1 KJ8       0.092900
     18 C10        146.3230   127.8250   199.0800 ca         1 KJ8      -0.041800
     19 C11        147.3710   128.4710   198.4100 ca         1 KJ8      -0.081000
     20 C12        147.2190   129.7740   197.9580 ca         1 KJ8      -0.116000
     21 C13        146.0260   130.4590   198.1730 ca         1 KJ8      -0.097000
     22 C14        144.9850   129.8310   198.8500 ca         1 KJ8      -0.116000
     23 C15        145.1300   128.5260   199.3020 ca         1 KJ8      -0.081000
     24 O3         145.7190   126.1300   200.6810 os         1 KJ8      -0.285400
     25 C4         146.0320   124.8560   201.0140 ca         1 KJ8       0.296300
     26 N6         145.4920   124.2480   202.0610 nb         1 KJ8      -0.206000
     27 C7         145.9540   123.0050   202.2080 ca         1 KJ8       0.181900
     28 N8         146.8200   122.3590   201.4270 nb         1 KJ8      -0.281000
     29 C9         147.3280   122.9890   200.3490 ca         1 KJ8       0.438900
     30 N          148.1500   122.3080   199.5330 nu         1 KJ8      -0.916100
     31 CA         148.5480   120.9240   199.7250 c3         1 KJ8       0.291800
     32 C          149.6710   120.5940   198.7440 c3         1 KJ8       0.155600
     33 O          150.8210   121.3830   199.0080 oh         1 KJ8      -0.718000
     34 C17        147.4050   119.9440   199.5290 ca         1 KJ8      -0.095300
     35 C18        146.4180   120.1690   198.5720 ca         1 KJ8      -0.095000
     36 C19        145.3990   119.2420   198.3780 ca         1 KJ8      -0.110500
     37 C20        145.3590   118.0770   199.1390 ca         1 KJ8      -0.106000
     38 C21        146.3440   117.8460   200.0950 ca         1 KJ8      -0.110500
     39 C22        147.3600   118.7760   200.2870 ca         1 KJ8      -0.095000
     40 H1         153.4690   119.2010   197.9430 h1         1 KJ8       0.042033
     41 H2         151.9310   118.7810   197.1720 h1         1 KJ8       0.042033
     42 H3         153.4010   118.9220   196.1870 h1         1 KJ8       0.042033
     43 H5         150.7680   120.3350   195.8610 h1         1 KJ8       0.042033
     44 H6         151.3560   121.9810   195.6320 h1         1 KJ8       0.042033
     45 H7         152.1490   120.6390   194.7860 h1         1 KJ8       0.042033
     46 H8         154.5910   121.0240   197.2550 h1         1 KJ8       0.051200
     47 H9         154.0820   121.6300   195.6840 h1         1 KJ8       0.051200
     48 H10        153.5360   122.8560   198.4350 hc         1 KJ8       0.072700
     49 H11        154.6770   123.4390   197.2200 hc         1 KJ8       0.072700
     50 H12        151.5530   123.5460   198.3810 hn         1 KJ8       0.170000
     51 H13        149.7820   124.5920   199.2370 ha         1 KJ8       0.128000
     52 H14        150.6080   124.8270   195.0460 ha         1 KJ8       0.146000
     53 H15        148.3410   125.7280   194.6680 ha         1 KJ8       0.118000
     54 H16        146.7570   125.9900   196.5440 ha         1 KJ8       0.126000
     55 H17        148.3090   127.9570   198.2560 ha         1 KJ8       0.126500
     56 H18        148.0400   130.2590   197.4450 ha         1 KJ8       0.116000
     57 H19        145.9120   131.4760   197.8200 ha         1 KJ8       0.114000
     58 H20        144.0560   130.3580   199.0250 ha         1 KJ8       0.116000
     59 H21        144.3140   128.0420   199.8210 ha         1 KJ8       0.126500
     60 H22        145.5760   122.4490   203.0590 h5         1 KJ8       0.051100
     61 H23        148.5060   122.7860   198.7210 hn         1 KJ8       0.512000
     62 H24        148.9330   120.8080   200.7410 h1         1 KJ8       0.085700
     63 H25        149.3040   120.7680   197.7240 h1         1 KJ8       0.027700
     64 H26        149.8970   119.5280   198.8400 h1         1 KJ8       0.027700
     65 H27        151.4900   121.1790   198.3010 ho         1 KJ8       0.491000
     66 H28        146.4370   121.0800   197.9870 ha         1 KJ8       0.113000
     67 H29        144.6350   119.4310   197.6350 ha         1 KJ8       0.113000
     68 H30        144.5630   117.3580   198.9930 ha         1 KJ8       0.113000
     69 H31        146.3180   116.9450   200.6960 ha         1 KJ8       0.113000
     70 H32        148.1200   118.5990   201.0390 ha         1 KJ8       0.113000
@<TRIPOS>BOND
     1     1     2 1   
     2     1    40 1   
     3     1    41 1   
     4     1    42 1   
     5     2     3 1   
     6     2     4 1   
     7     3    43 1   
     8     3    44 1   
     9     3    45 1   
    10     4     5 1   
    11     4    46 1   
    12     4    47 1   
    13     5     6 1   
    14     5    48 1   
    15     5    49 1   
    16     6     7 2   
    17     6     8 1   
    18     8     9 1   
    19     8    50 1   
    20     9    10 ar  
    21     9    11 ar  
    22    10    14 ar  
    23    10    51 1   
    24    11    12 ar  
    25    11    52 1   
    26    12    13 ar  
    27    12    53 1   
    28    13    14 ar  
    29    13    54 1   
    30    14    15 1   
    31    15    16 1   
    32    15    17 2   
    33    16    25 ar  
    34    16    29 ar  
    35    17    18 1   
    36    17    24 1   
    37    18    19 ar  
    38    18    23 ar  
    39    19    20 ar  
    40    19    55 1   
    41    20    21 ar  
    42    20    56 1   
    43    21    22 ar  
    44    21    57 1   
    45    22    23 ar  
    46    22    58 1   
    47    23    59 1   
    48    24    25 1   
    49    25    26 ar  
    50    26    27 ar  
    51    27    28 ar  
    52    27    60 1   
    53    28    29 ar  
    54    29    30 1   
    55    30    31 1   
    56    30    61 1   
    57    31    32 1   
    58    31    34 1   
    59    31    62 1   
    60    32    33 1   
    61    32    63 1   
    62    32    64 1   
    63    33    65 1   
    64    34    35 ar  
    65    34    39 ar  
    66    35    36 ar  
    67    35    66 1   
    68    36    37 ar  
    69    36    67 1   
    70    37    38 ar  
    71    37    68 1   
    72    38    39 ar  
    73    38    69 1   
    74    39    70 1   
@<TRIPOS>SUBSTRUCTURE
     1 KJ8         1 TEMP              0 ****  ****    0 ROOT
