@<TRIPOS>MOLECULE
KJ8
   70    74     1     0     0
SMALL
No Charge or Current Charge


@<TRIPOS>ATOM
      1 C35        153.0660   119.4570   197.2490 c3         1 KJ8       0.136100
      2 N32        152.6850   120.8550   196.9330 n3         1 KJ8      -0.743600
      3 C34        151.7370   120.8940   195.7850 c3         1 KJ8       0.136100
      4 C31        153.8840   121.7180   196.7270 c3         1 KJ8       0.165800
      5 C30        153.7330   123.1670   197.2300 c3         1 KJ8      -0.160400
      6 C29        152.5930   123.9200   196.5530 c          1 KJ8       0.605100
      7 O33        152.6850   124.3480   195.4070 o          1 KJ8      -0.593100
      8 N28        151.4870   124.0930   197.3690 ns         1 KJ8      -0.147000
      9 C26        150.1810   124.5830   197.1230 ca         1 KJ8      -0.022000
     10 C27        149.3420   124.7550   198.2360 ca         1 KJ8      -0.170000
     11 C25        149.6740   124.8360   195.8310 ca         1 KJ8      -0.134000
     12 C24        148.3400   125.2490   195.6670 ca         1 KJ8      -0.087000
     13 C23        147.5050   125.3980   196.7870 ca         1 KJ8      -0.122000
     14 C16        148.0050   125.1540   198.0790 ca         1 KJ8      -0.002800
     15 C1         147.1380   125.2660   199.2460 cc         1 KJ8      -0.037400
     16 C5         146.8110   124.2650   200.2460 ca         1 KJ8      -0.278800
     17 C2         146.4010   126.3940   199.6030 cd         1 KJ8       0.092900
     18 C10        146.3930   127.7960   199.1200 ca         1 KJ8      -0.041800
     19 C11        147.4000   128.3050   198.2670 ca         1 KJ8      -0.081000
     20 C12        147.3650   129.6400   197.8290 ca         1 KJ8      -0.116000
     21 C13        146.3290   130.4920   198.2410 ca         1 KJ8      -0.097000
     22 C14        145.3310   130.0080   199.0990 ca         1 KJ8      -0.116000
     23 C15        145.3650   128.6730   199.5390 ca         1 KJ8      -0.081000
     24 O3         145.6740   126.1180   200.7400 os         1 KJ8      -0.285400
     25 C4         145.9240   124.8360   201.1270 ca         1 KJ8       0.296300
     26 N6         145.4010   124.1900   202.1800 nb         1 KJ8      -0.206000
     27 C7         145.8230   122.9090   202.3100 ca         1 KJ8       0.181900
     28 N8         146.6880   122.2490   201.4970 nb         1 KJ8      -0.281000
     29 C9         147.1850   122.9340   200.4450 ca         1 KJ8       0.438900
     30 N          148.0640   122.2910   199.5890 nu         1 KJ8      -0.916100
     31 CA         148.5560   120.8990   199.6630 c3         1 KJ8       0.291800
     32 C          149.7150   120.6440   198.6460 c3         1 KJ8       0.155600
     33 O          150.8740   121.4610   198.9080 oh         1 KJ8      -0.718000
     34 C17        147.4010   119.9190   199.4310 ca         1 KJ8      -0.095300
     35 C18        146.6630   119.9430   198.2280 ca         1 KJ8      -0.095000
     36 C19        145.6070   119.0390   198.0220 ca         1 KJ8      -0.110500
     37 C20        145.2780   118.1020   199.0160 ca         1 KJ8      -0.106000
     38 C21        146.0060   118.0720   200.2170 ca         1 KJ8      -0.110500
     39 C22        147.0620   118.9760   200.4240 ca         1 KJ8      -0.095000
     40 H1         153.7000   119.4190   198.1460 h1         1 KJ8       0.042033
     41 H2         152.1760   118.8440   197.4440 h1         1 KJ8       0.042033
     42 H3         153.6200   119.0020   196.4170 h1         1 KJ8       0.042033
     43 H5         150.8920   120.2150   195.9560 h1         1 KJ8       0.042033
     44 H6         151.3220   121.8960   195.6280 h1         1 KJ8       0.042033
     45 H7         152.2340   120.5800   194.8570 h1         1 KJ8       0.042033
     46 H8         154.7420   121.2930   197.2660 h1         1 KJ8       0.051200
     47 H9         154.1680   121.7310   195.6650 h1         1 KJ8       0.051200
     48 H10        153.5680   123.1250   198.3130 hc         1 KJ8       0.072700
     49 H11        154.6710   123.6930   197.0210 hc         1 KJ8       0.072700
     50 H12        151.6050   123.7150   198.3000 hn         1 KJ8       0.170000
     51 H13        149.7290   124.5680   199.2360 ha         1 KJ8       0.128000
     52 H14        150.2880   124.6970   194.9460 ha         1 KJ8       0.146000
     53 H15        147.9480   125.4360   194.6700 ha         1 KJ8       0.118000
     54 H16        146.4690   125.6990   196.6530 ha         1 KJ8       0.126000
     55 H17        148.2340   127.6860   197.9560 ha         1 KJ8       0.126500
     56 H18        148.1480   130.0160   197.1750 ha         1 KJ8       0.116000
     57 H19        146.3040   131.5260   197.9020 ha         1 KJ8       0.114000
     58 H20        144.5280   130.6660   199.4250 ha         1 KJ8       0.116000
     59 H21        144.5770   128.3190   200.2000 ha         1 KJ8       0.126500
     60 H22        145.4250   122.3490   203.1540 h5         1 KJ8       0.051100
     61 H23        148.4980   122.8910   198.8920 hn         1 KJ8       0.512000
     62 H24        148.9700   120.7180   200.6660 h1         1 KJ8       0.085700
     63 H25        149.3460   120.8370   197.6300 h1         1 KJ8       0.027700
     64 H26        149.9940   119.5830   198.6950 h1         1 KJ8       0.027700
     65 H27        151.5530   121.2160   198.2120 ho         1 KJ8       0.491000
     66 H28        146.9040   120.6680   197.4540 ha         1 KJ8       0.113000
     67 H29        145.0420   119.0660   197.0930 ha         1 KJ8       0.113000
     68 H30        144.4600   117.4030   198.8570 ha         1 KJ8       0.113000
     69 H31        145.7510   117.3480   200.9880 ha         1 KJ8       0.113000
     70 H32        147.6170   118.9440   201.3600 ha         1 KJ8       0.113000
@<TRIPOS>BOND
     1     1     2 1   
     2     1    40 1   
     3     1    41 1   
     4     1    42 1   
     5     2     3 1   
     6     2     4 1   
     7     3    43 1   
     8     3    44 1   
     9     3    45 1   
    10     4     5 1   
    11     4    46 1   
    12     4    47 1   
    13     5     6 1   
    14     5    48 1   
    15     5    49 1   
    16     6     7 2   
    17     6     8 1   
    18     8     9 1   
    19     8    50 1   
    20     9    10 ar  
    21     9    11 ar  
    22    10    14 ar  
    23    10    51 1   
    24    11    12 ar  
    25    11    52 1   
    26    12    13 ar  
    27    12    53 1   
    28    13    14 ar  
    29    13    54 1   
    30    14    15 1   
    31    15    16 1   
    32    15    17 2   
    33    16    25 ar  
    34    16    29 ar  
    35    17    18 1   
    36    17    24 1   
    37    18    19 ar  
    38    18    23 ar  
    39    19    20 ar  
    40    19    55 1   
    41    20    21 ar  
    42    20    56 1   
    43    21    22 ar  
    44    21    57 1   
    45    22    23 ar  
    46    22    58 1   
    47    23    59 1   
    48    24    25 1   
    49    25    26 ar  
    50    26    27 ar  
    51    27    28 ar  
    52    27    60 1   
    53    28    29 ar  
    54    29    30 1   
    55    30    31 1   
    56    30    61 1   
    57    31    32 1   
    58    31    34 1   
    59    31    62 1   
    60    32    33 1   
    61    32    63 1   
    62    32    64 1   
    63    33    65 1   
    64    34    35 ar  
    65    34    39 ar  
    66    35    36 ar  
    67    35    66 1   
    68    36    37 ar  
    69    36    67 1   
    70    37    38 ar  
    71    37    68 1   
    72    38    39 ar  
    73    38    69 1   
    74    39    70 1   
@<TRIPOS>SUBSTRUCTURE
     1 KJ8         1 TEMP              0 ****  ****    0 ROOT
