@<TRIPOS>MOLECULE
KJB
   74    78     1     0     0
SMALL
No Charge or Current Charge


@<TRIPOS>ATOM
      1 C4          -6.5120   -30.4950    -8.8650 ca         1 KJB      -0.206000
      2 C14         -0.8010   -24.2090    -6.2660 c3         1 KJB       0.322000
      3 C5          -6.5580   -29.5940    -9.9480 ca         1 KJB      -0.045300
      4 C6          -7.1000   -28.1590    -9.8210 c3         1 KJB       0.238800
      5 C11         -2.4940   -25.0060    -8.0850 c          1 KJB       0.619100
      6 C8          -5.5400   -27.4270    -7.9900 c6         1 KJB       0.153300
      7 C9          -4.6070   -26.2860    -7.5000 c6         1 KJB       0.097000
      8 C13         -2.0650   -25.0140    -6.6130 c3         1 KJB      -0.245400
      9 N2          -5.5360   -32.2300   -10.2460 nb         1 KJB      -0.737000
     10 C3          -6.0010   -31.7890    -9.0580 ca         1 KJB       0.375900
     11 C1          -5.5700   -31.3710   -11.2750 ca         1 KJB       0.604900
     12 C18         -3.9990   -25.8580    -9.9050 c6         1 KJB       0.097000
     13 C19         -4.9440   -27.0220   -10.3020 c6         1 KJB       0.153300
     14 C20         -8.4160   -28.0930    -9.0100 c3         1 KJB      -0.083100
     15 C21         -6.0750   -30.0670   -11.1820 ca         1 KJB      -0.214000
     16 C23         -3.7480   -32.0750   -12.3810 c5         1 KJB       0.763900
     17 C25         -2.9470   -32.6920   -14.4180 ca         1 KJB       0.250000
     18 C26         -2.8160   -31.3380   -14.3220 ca         1 KJB       0.201000
     19 C27         -2.0510   -30.6070   -15.2390 ca         1 KJB      -0.069000
     20 C28         -1.4000   -31.2950   -16.3050 cp         1 KJB      -0.160500
     21 C29         -1.5640   -32.7130   -16.3880 ca         1 KJB      -0.059000
     22 C30         -2.3310   -33.4220   -15.4380 ca         1 KJB      -0.149000
     23 C31         -0.5770   -30.5580   -17.3260 cp         1 KJB       0.158500
     24 C32          0.2870   -29.4630   -17.0230 ca         1 KJB       0.062100
     25 C33          0.9940   -28.8620   -18.0910 ca         1 KJB       0.011900
     26 C35          0.0500   -30.3630   -19.5450 ca         1 KJB       0.082900
     27 C38          1.4590   -28.1650   -15.2570 c3         1 KJB       0.178300
     28 C39          2.7950   -28.9400   -15.2570 c3         1 KJB      -0.108600
     29 C40          1.0570   -27.6960   -13.8470 c3         1 KJB      -0.108600
     30 F15         -0.5250   -24.3220    -4.9480 f          1 KJB      -0.110333
     31 F16         -0.9600   -22.8940    -6.5400 f          1 KJB      -0.110333
     32 F17          0.2750   -24.6620    -6.9500 f          1 KJB      -0.110333
     33 N10         -3.5530   -25.8580    -8.4770 n          1 KJB      -0.411800
     34 N22         -5.1050   -31.8580   -12.4680 nu         1 KJB      -0.929100
     35 N24         -3.7070   -33.1490   -13.3590 nu         1 KJB      -0.979200
     36 N34          0.8730   -29.3120   -19.3560 nb         1 KJB      -0.145000
     37 N36         -0.6680   -31.0030   -18.5990 nb         1 KJB      -0.160000
     38 N41         -3.4860   -30.8900   -13.1910 nu         1 KJB      -0.979200
     39 N7          -6.0800   -27.1750    -9.3550 n3         1 KJB      -0.736600
     40 O12         -1.9090   -24.3260    -8.9170 o          1 KJB      -0.577100
     41 O37          0.4160   -29.0490   -15.7070 os         1 KJB      -0.339100
     42 H1          -6.8590   -30.2090    -7.8770 ha         1 KJB       0.123000
     43 H2          -7.3940   -27.8580   -10.8370 h1         1 KJB       0.062700
     44 H3          -6.3500   -27.5380    -7.2570 h1         1 KJB       0.044700
     45 H4          -4.9670   -28.3660    -7.9780 h1         1 KJB       0.044700
     46 H5          -4.1460   -26.6220    -6.5620 h1         1 KJB       0.061700
     47 H6          -5.2270   -25.4110    -7.2600 h1         1 KJB       0.061700
     48 H7          -2.9160   -24.6800    -6.0110 hc         1 KJB       0.093200
     49 H8          -1.9680   -26.0570    -6.2960 hc         1 KJB       0.093200
     50 H9          -5.9610   -32.4960    -8.2300 h4         1 KJB       0.015100
     51 H10         -3.1200   -25.8900   -10.5650 h1         1 KJB       0.061700
     52 H11         -4.5160   -24.9090   -10.1040 h1         1 KJB       0.061700
     53 H12         -5.3140   -26.8370   -11.3210 h1         1 KJB       0.044700
     54 H13         -4.3530   -27.9490   -10.3390 h1         1 KJB       0.044700
     55 H14         -8.8150   -27.0720    -9.0180 hc         1 KJB       0.042700
     56 H15         -9.1680   -28.7530    -9.4580 hc         1 KJB       0.042700
     57 H16         -8.2780   -28.3960    -7.9670 hc         1 KJB       0.042700
     58 H17         -6.0820   -29.4280   -12.0600 ha         1 KJB       0.121000
     59 H18         -3.2610   -32.1940   -11.3910 h3         1 KJB       0.101700
     60 H19         -1.9760   -29.5290   -15.1340 ha         1 KJB       0.130000
     61 H20         -1.0790   -33.2700   -17.1870 ha         1 KJB       0.128000
     62 H21         -2.4380   -34.5010   -15.4960 ha         1 KJB       0.119000
     63 H22          1.6670   -28.0190   -17.9480 h4         1 KJB       0.025100
     64 H23         -0.0450   -30.7330   -20.5650 h5         1 KJB       0.051100
     65 H24          1.5360   -27.2800   -15.9030 h1         1 KJB       0.044700
     66 H25          3.5970   -28.3170   -14.8470 hc         1 KJB       0.049033
     67 H26          2.7170   -29.8470   -14.6440 hc         1 KJB       0.049033
     68 H27          3.0840   -29.2340   -16.2720 hc         1 KJB       0.049033
     69 H28          1.8140   -27.0170   -13.4370 hc         1 KJB       0.049033
     70 H29          0.1010   -27.1610   -13.8790 hc         1 KJB       0.049033
     71 H30          0.9540   -28.5500   -13.1660 hc         1 KJB       0.049033
     72 H31         -5.2230   -31.1980   -13.2130 hn         1 KJB       0.464000
     73 H32         -3.5270   -34.0940   -13.0370 hn         1 KJB       0.498000
     74 H33         -3.0630   -30.0870   -12.7320 hn         1 KJB       0.488000
@<TRIPOS>BOND
     1     1     3 ar  
     2     1    10 ar  
     3     1    42 1   
     4     2     8 1   
     5     2    30 1   
     6     2    31 1   
     7     2    32 1   
     8     3     4 1   
     9     3    15 ar  
    10     4    14 1   
    11     4    39 1   
    12     4    43 1   
    13     5     8 1   
    14     5    33 1   
    15     5    40 2   
    16     6     7 1   
    17     6    39 1   
    18     6    44 1   
    19     6    45 1   
    20     7    33 1   
    21     7    46 1   
    22     7    47 1   
    23     8    48 1   
    24     8    49 1   
    25     9    10 ar  
    26     9    11 ar  
    27    10    50 1   
    28    11    15 ar  
    29    11    34 1   
    30    12    13 1   
    31    12    33 1   
    32    12    51 1   
    33    12    52 1   
    34    13    39 1   
    35    13    53 1   
    36    13    54 1   
    37    14    55 1   
    38    14    56 1   
    39    14    57 1   
    40    15    58 1   
    41    16    34 1   
    42    16    35 1   
    43    16    38 1   
    44    16    59 1   
    45    17    18 ar  
    46    17    22 ar  
    47    17    35 1   
    48    18    19 ar  
    49    18    38 1   
    50    19    20 ar  
    51    19    60 1   
    52    20    21 ar  
    53    20    23 1   
    54    21    22 ar  
    55    21    61 1   
    56    22    62 1   
    57    23    24 ar  
    58    23    37 ar  
    59    24    25 ar  
    60    24    41 1   
    61    25    36 ar  
    62    25    63 1   
    63    26    36 ar  
    64    26    37 ar  
    65    26    64 1   
    66    27    28 1   
    67    27    29 1   
    68    27    41 1   
    69    27    65 1   
    70    28    66 1   
    71    28    67 1   
    72    28    68 1   
    73    29    69 1   
    74    29    70 1   
    75    29    71 1   
    76    34    72 1   
    77    35    73 1   
    78    38    74 1   
@<TRIPOS>SUBSTRUCTURE
     1 KJB         1 TEMP              0 ****  ****    0 ROOT
