@<TRIPOS>MOLECULE
KJB
   74    78     1     0     0
SMALL
abcg2


@<TRIPOS>ATOM
      1 C4          -5.6010   -30.6130    -8.3810 ca         1 KJB      -0.206000
      2 C14         -1.4710   -23.9610    -9.6170 c3         1 KJB       0.322000
      3 C5          -6.4250   -29.9650    -9.3080 ca         1 KJB      -0.045300
      4 C6          -7.3650   -28.8370    -8.9190 c3         1 KJB       0.238800
      5 C11         -3.8220   -24.8280   -10.0080 c          1 KJB       0.619100
      6 C8          -5.5400   -27.3430    -8.1930 c6         1 KJB       0.153300
      7 C9          -5.1420   -25.8750    -8.1600 c6         1 KJB       0.097000
      8 C13         -2.6640   -24.6730    -9.0320 c3         1 KJB      -0.245400
      9 N2          -4.5780   -31.9000   -10.1240 nb         1 KJB      -0.737000
     10 C3          -4.7150   -31.5630    -8.8440 ca         1 KJB       0.375900
     11 C1          -5.3620   -31.2970   -11.0110 ca         1 KJB       0.604900
     12 C18         -6.1120   -25.5900   -10.3500 c6         1 KJB       0.097000
     13 C19         -6.4930   -27.0610   -10.3560 c6         1 KJB       0.153300
     14 C20         -8.0310   -29.0450    -7.5660 c3         1 KJB      -0.083100
     15 C21         -6.3100   -30.3320   -10.6350 ca         1 KJB      -0.214000
     16 C23         -4.0200   -32.3080   -12.7850 c5         1 KJB       0.763900
     17 C25         -3.2590   -31.7880   -14.9050 ca         1 KJB       0.250000
     18 C26         -2.4190   -31.1390   -13.9870 ca         1 KJB       0.201000
     19 C27         -1.4100   -30.3070   -14.4040 ca         1 KJB      -0.069000
     20 C28         -1.2300   -30.1010   -15.7880 cp         1 KJB      -0.160500
     21 C29         -2.0890   -30.7270   -16.6880 ca         1 KJB      -0.059000
     22 C30         -3.1040   -31.5850   -16.2620 ca         1 KJB      -0.149000
     23 C31         -0.2060   -29.1790   -16.3110 cp         1 KJB       0.158500
     24 C32          1.0870   -29.0540   -15.7600 ca         1 KJB       0.062100
     25 C33          1.9290   -28.1180   -16.3500 ca         1 KJB       0.011900
     26 C35          0.3500   -27.6060   -17.8720 ca         1 KJB       0.082900
     27 C38          2.7370   -29.8300   -14.1770 c3         1 KJB       0.178300
     28 C39          3.6950   -30.5940   -15.0730 c3         1 KJB      -0.108600
     29 C40          2.6200   -30.4600   -12.8040 c3         1 KJB      -0.108600
     30 F15         -0.5140   -23.8320    -8.6820 f          1 KJB      -0.110333
     31 F16         -1.7550   -22.7240   -10.0400 f          1 KJB      -0.110333
     32 F17         -0.9130   -24.6140   -10.6420 f          1 KJB      -0.110333
     33 N10         -4.9470   -25.3770    -9.5100 n          1 KJB      -0.411800
     34 N22         -5.2330   -31.6570   -12.3310 nu         1 KJB      -0.929100
     35 N24         -4.1160   -32.5930   -14.1980 nu         1 KJB      -0.979200
     36 N34          1.5630   -27.3890   -17.4000 nb         1 KJB      -0.145000
     37 N36         -0.5350   -28.4530   -17.3760 nb         1 KJB      -0.160000
     38 N41         -2.8400   -31.4630   -12.7040 nu         1 KJB      -0.979200
     39 N7          -6.7290   -27.5220    -9.0020 n3         1 KJB      -0.736600
     40 O12         -3.7170   -24.4650   -11.1690 o          1 KJB      -0.577100
     41 O37          1.4100   -29.8350   -14.7250 os         1 KJB      -0.339100
     42 H1          -5.6400   -30.3860    -7.3240 ha         1 KJB       0.123000
     43 H2          -8.1680   -28.8190    -9.6640 h1         1 KJB       0.062700
     44 H3          -5.7290   -27.6640    -7.1680 h1         1 KJB       0.044700
     45 H4          -4.6830   -27.9270    -8.5660 h1         1 KJB       0.044700
     46 H5          -4.2430   -25.7650    -7.5600 h1         1 KJB       0.061700
     47 H6          -5.9320   -25.2910    -7.6780 h1         1 KJB       0.061700
     48 H7          -2.9820   -24.1180    -8.1460 hc         1 KJB       0.093200
     49 H8          -2.3330   -25.6540    -8.6800 hc         1 KJB       0.093200
     50 H9          -4.0660   -32.0830    -8.1470 h4         1 KJB       0.015100
     51 H10         -5.9060   -25.2510   -11.3610 h1         1 KJB       0.061700
     52 H11         -6.9430   -24.9960    -9.9560 h1         1 KJB       0.061700
     53 H12         -7.4070   -27.1810   -10.9430 h1         1 KJB       0.044700
     54 H13         -5.7000   -27.6290   -10.8670 h1         1 KJB       0.044700
     55 H14         -8.7530   -28.2480    -7.3880 hc         1 KJB       0.042700
     56 H15         -8.5660   -29.9950    -7.5520 hc         1 KJB       0.042700
     57 H16         -7.3300   -29.0520    -6.7330 hc         1 KJB       0.042700
     58 H17         -6.9380   -29.8720   -11.3900 ha         1 KJB       0.121000
     59 H18         -3.8900   -33.2120   -12.1890 h3         1 KJB       0.101700
     60 H19         -0.7940   -29.8000   -13.6750 ha         1 KJB       0.130000
     61 H20         -1.9600   -30.5560   -17.7480 ha         1 KJB       0.128000
     62 H21         -3.7430   -32.0800   -16.9820 ha         1 KJB       0.119000
     63 H22          2.9330   -27.9460   -15.9810 h4         1 KJB       0.025100
     64 H23          0.0460   -27.0330   -18.7410 h5         1 KJB       0.051100
     65 H24          3.0760   -28.7950   -14.0570 h1         1 KJB       0.044700
     66 H25          4.6960   -30.5710   -14.6410 hc         1 KJB       0.049033
     67 H26          3.3900   -31.6380   -15.1610 hc         1 KJB       0.049033
     68 H27          3.7650   -30.1740   -16.0770 hc         1 KJB       0.049033
     69 H28          3.5970   -30.4690   -12.3200 hc         1 KJB       0.049033
     70 H29          1.9350   -29.9000   -12.1670 hc         1 KJB       0.049033
     71 H30          2.2690   -31.4910   -12.8730 hc         1 KJB       0.049033
     72 H31         -5.6060   -30.9830   -12.9860 hn         1 KJB       0.464000
     73 H32         -4.9810   -32.9320   -14.5860 hn         1 KJB       0.498000
     74 H33         -2.1540   -31.6950   -12.0040 hn         1 KJB       0.488000
@<TRIPOS>BOND
     1     1     3 ar  
     2     1    10 ar  
     3     1    42 1   
     4     2     8 1   
     5     2    30 1   
     6     2    31 1   
     7     2    32 1   
     8     3     4 1   
     9     3    15 ar  
    10     4    14 1   
    11     4    39 1   
    12     4    43 1   
    13     5     8 1   
    14     5    33 1   
    15     5    40 2   
    16     6     7 1   
    17     6    39 1   
    18     6    44 1   
    19     6    45 1   
    20     7    33 1   
    21     7    46 1   
    22     7    47 1   
    23     8    48 1   
    24     8    49 1   
    25     9    10 ar  
    26     9    11 ar  
    27    10    50 1   
    28    11    15 ar  
    29    11    34 1   
    30    12    13 1   
    31    12    33 1   
    32    12    51 1   
    33    12    52 1   
    34    13    39 1   
    35    13    53 1   
    36    13    54 1   
    37    14    55 1   
    38    14    56 1   
    39    14    57 1   
    40    15    58 1   
    41    16    34 1   
    42    16    35 1   
    43    16    38 1   
    44    16    59 1   
    45    17    18 ar  
    46    17    22 ar  
    47    17    35 1   
    48    18    19 ar  
    49    18    38 1   
    50    19    20 ar  
    51    19    60 1   
    52    20    21 ar  
    53    20    23 1   
    54    21    22 ar  
    55    21    61 1   
    56    22    62 1   
    57    23    24 ar  
    58    23    37 ar  
    59    24    25 ar  
    60    24    41 1   
    61    25    36 ar  
    62    25    63 1   
    63    26    36 ar  
    64    26    37 ar  
    65    26    64 1   
    66    27    28 1   
    67    27    29 1   
    68    27    41 1   
    69    27    65 1   
    70    28    66 1   
    71    28    67 1   
    72    28    68 1   
    73    29    69 1   
    74    29    70 1   
    75    29    71 1   
    76    34    72 1   
    77    35    73 1   
    78    38    74 1   
@<TRIPOS>SUBSTRUCTURE
     1 KJB         1 TEMP              0 ****  ****    0 ROOT
