@<TRIPOS>MOLECULE
KJC
   59    62     1     0     0
SMALL
No Charge or Current Charge


@<TRIPOS>ATOM
      1 N3          55.7950   -17.8090    14.1050 nc         1 KJC      -0.502800
      2 C5          56.1730   -16.8610    12.0160 cc         1 KJC      -0.191000
      3 C6          54.8490   -15.8370    15.3240 c          1 KJC       0.535600
      4 C13         54.1250   -10.7330    12.7900 ca         1 KJC       0.358300
      5 C15         55.0920   -12.4240    11.4800 ca         1 KJC       0.229500
      6 C17         53.5320   -10.3230    14.1170 cx         1 KJC      -0.206000
      7 C21         56.4240   -11.2910     8.0520 ca         1 KJC       0.218000
      8 C22         56.5420   -11.9370     6.8020 ca         1 KJC       0.053900
      9 C24         57.6010   -10.0950     5.9330 ca         1 KJC       0.077900
     10 C26         56.9780    -9.9910     8.1410 ca         1 KJC       0.053900
     11 C28         54.0630   -10.8350    15.4420 cx         1 KJC      -0.103900
     12 C1          55.6440   -15.9260    12.8550 cd         1 KJC      -0.001400
     13 C2          55.4240   -16.5300    14.1180 cd         1 KJC       0.159500
     14 N4          56.2500   -17.9980    12.8140 na         1 KJC       0.142800
     15 O7          54.4970   -14.6630    15.3440 o          1 KJC      -0.641100
     16 N8          54.7490   -16.6510    16.4330 ns         1 KJC      -0.474900
     17 C9          56.7560   -19.3140    12.4030 c3         1 KJC       0.071900
     18 N10         55.3590   -14.5970    12.5670 ns         1 KJC      -0.339100
     19 C11         54.7790   -10.2220    10.5040 ca         1 KJC      -0.149000
     20 C12         54.2170    -9.8160    11.7270 ca         1 KJC      -0.095000
     21 N14         54.5450   -12.0120    12.6700 nb         1 KJC      -0.648000
     22 C16         55.2540   -11.5400    10.3640 ca         1 KJC       0.325000
     23 C18         55.5190   -13.8920    11.3850 c          1 KJC       0.521600
     24 O19         55.9510   -14.4180    10.3590 o          1 KJC      -0.651100
     25 N20         55.8290   -11.9550     9.1440 nu         1 KJC      -0.976000
     26 N23         57.1230   -11.3420     5.7380 nb         1 KJC      -0.146500
     27 N25         57.5630    -9.3900     7.0830 nb         1 KJC      -0.146500
     28 C27         52.6950   -11.2610    14.9650 cx         1 KJC      -0.103900
     29 C29         54.3010   -16.2190    17.7650 c3         1 KJC       0.114000
     30 C30         55.4670   -15.9420    18.7650 c3         1 KJC       0.151000
     31 O31         56.2670   -17.1250    18.8870 oh         1 KJC      -0.674000
     32 C32         56.3890   -14.8000    18.2730 c3         1 KJC      -0.116100
     33 C33         54.9030   -15.6130    20.1650 c3         1 KJC      -0.116100
     34 H1          56.4870   -16.8290    10.9810 h4         1 KJC       0.184000
     35 H2          53.2110    -9.2840    14.1080 hc         1 KJC       0.080700
     36 H3          56.1600   -12.9450     6.6460 h4         1 KJC       0.030600
     37 H4          58.0700    -9.6110     5.0780 h5         1 KJC       0.053100
     38 H5          56.9800    -9.4290     9.0730 h4         1 KJC       0.030600
     39 H6          54.8540   -11.5820    15.4300 hc         1 KJC       0.079700
     40 H7          54.1150   -10.1350    16.2720 hc         1 KJC       0.079700
     41 H8          55.1040   -17.5950    16.3230 hn         1 KJC       0.342500
     42 H9          55.9650   -20.0640    12.5220 h1         1 KJC       0.062367
     43 H10         57.0690   -19.2810    11.3530 h1         1 KJC       0.062367
     44 H11         57.6150   -19.5870    13.0280 h1         1 KJC       0.062367
     45 H12         54.9690   -14.0150    13.3090 hn         1 KJC       0.387500
     46 H13         54.8230    -9.5210     9.6770 ha         1 KJC       0.131000
     47 H14         53.8510    -8.8000    11.8500 ha         1 KJC       0.128000
     48 H15         55.9270   -12.9840     9.1090 hn         1 KJC       0.545000
     49 H16         51.8290   -10.8470    15.4760 hc         1 KJC       0.079700
     50 H17         52.5750   -12.2910    14.6360 hc         1 KJC       0.079700
     51 H18         53.6850   -15.3150    17.6690 h1         1 KJC       0.067700
     52 H19         53.6560   -17.0060    18.1780 h1         1 KJC       0.067700
     53 H20         57.0080   -16.9090    19.4940 ho         1 KJC       0.442000
     54 H21         57.1770   -14.5850    19.0060 hc         1 KJC       0.045367
     55 H22         56.8750   -15.0610    17.3250 hc         1 KJC       0.045367
     56 H23         55.8140   -13.8800    18.1170 hc         1 KJC       0.045367
     57 H24         55.7100   -15.4390    20.8870 hc         1 KJC       0.045367
     58 H25         54.2820   -14.7090    20.1290 hc         1 KJC       0.045367
     59 H26         54.2820   -16.4350    20.5410 hc         1 KJC       0.045367
@<TRIPOS>BOND
     1     1    13 2   
     2     1    14 1   
     3     2    12 2   
     4     2    14 1   
     5     2    34 1   
     6     3    13 1   
     7     3    15 2   
     8     3    16 1   
     9     4     6 1   
    10     4    20 ar  
    11     4    21 ar  
    12     5    21 ar  
    13     5    22 ar  
    14     5    23 1   
    15     6    11 1   
    16     6    28 1   
    17     6    35 1   
    18     7     8 ar  
    19     7    10 ar  
    20     7    25 1   
    21     8    26 ar  
    22     8    36 1   
    23     9    26 ar  
    24     9    27 ar  
    25     9    37 1   
    26    10    27 ar  
    27    10    38 1   
    28    11    28 1   
    29    11    39 1   
    30    11    40 1   
    31    12    13 1   
    32    12    18 1   
    33    14    17 1   
    34    16    29 1   
    35    16    41 1   
    36    17    42 1   
    37    17    43 1   
    38    17    44 1   
    39    18    23 1   
    40    18    45 1   
    41    19    20 ar  
    42    19    22 ar  
    43    19    46 1   
    44    20    47 1   
    45    22    25 1   
    46    23    24 2   
    47    25    48 1   
    48    28    49 1   
    49    28    50 1   
    50    29    30 1   
    51    29    51 1   
    52    29    52 1   
    53    30    31 1   
    54    30    32 1   
    55    30    33 1   
    56    31    53 1   
    57    32    54 1   
    58    32    55 1   
    59    32    56 1   
    60    33    57 1   
    61    33    58 1   
    62    33    59 1   
@<TRIPOS>SUBSTRUCTURE
     1 KJC         1 TEMP              0 ****  ****    0 ROOT
