@<TRIPOS>MOLECULE
KJC
   59    62     1     0     0
SMALL
abcg2


@<TRIPOS>ATOM
      1 N3          55.8070   -17.6930    14.0940 nc         1 KJC      -0.502800
      2 C5          56.1340   -16.7730    12.0760 cc         1 KJC      -0.191000
      3 C6          54.8870   -15.7860    15.3710 c          1 KJC       0.535600
      4 C13         54.0200   -10.7260    12.6890 ca         1 KJC       0.358300
      5 C15         55.0430   -12.3980    11.4480 ca         1 KJC       0.229500
      6 C17         53.4230   -10.2920    13.9730 cx         1 KJC      -0.206000
      7 C21         56.4320   -11.3290     8.1610 ca         1 KJC       0.218000
      8 C22         56.6390   -11.9580     6.9250 ca         1 KJC       0.053900
      9 C24         57.6740   -10.1090     6.1120 ca         1 KJC       0.077900
     10 C26         56.9410   -10.0300     8.2660 ca         1 KJC       0.053900
     11 C28         54.0020   -10.7910    15.2800 cx         1 KJC      -0.103900
     12 C1          55.6090   -15.7850    12.8930 cd         1 KJC      -0.001400
     13 C2          55.4210   -16.4120    14.1490 cd         1 KJC       0.159500
     14 N4          56.2290   -17.8880    12.8470 na         1 KJC       0.142800
     15 O7          54.5360   -14.5960    15.3580 o          1 KJC      -0.641100
     16 N8          54.8090   -16.5780    16.4530 ns         1 KJC      -0.474900
     17 C9          56.7300   -19.1860    12.4260 c3         1 KJC       0.071900
     18 N10         55.3070   -14.4600    12.6260 ns         1 KJC      -0.339100
     19 C11         54.6990   -10.2610    10.4290 ca         1 KJC      -0.149000
     20 C12         54.1080    -9.8450    11.6000 ca         1 KJC      -0.095000
     21 N14         54.4690   -11.9680    12.5780 nb         1 KJC      -0.648000
     22 C16         55.2190   -11.5620    10.3240 ca         1 KJC       0.325000
     23 C18         55.4640   -13.8320    11.4420 c          1 KJC       0.521600
     24 O19         55.9120   -14.4020    10.4370 o          1 KJC      -0.651100
     25 N20         55.8170   -12.0390     9.1750 nu         1 KJC      -0.976000
     26 N23         57.2550   -11.3610     5.9120 nb         1 KJC      -0.146500
     27 N25         57.5490    -9.4250     7.2450 nb         1 KJC      -0.146500
     28 C27         52.6620   -11.2770    14.8320 cx         1 KJC      -0.103900
     29 C29         54.3710   -16.1250    17.7570 c3         1 KJC       0.114000
     30 C30         55.5080   -16.0230    18.7800 c3         1 KJC       0.151000
     31 O31         56.0190   -17.3680    18.9020 oh         1 KJC      -0.674000
     32 C32         56.6180   -15.0900    18.3040 c3         1 KJC      -0.116100
     33 C33         54.9380   -15.5630    20.1190 c3         1 KJC      -0.116100
     34 H1          56.4330   -16.7640    11.0460 h4         1 KJC       0.184000
     35 H2          53.0570    -9.2740    13.9670 hc         1 KJC       0.080700
     36 H3          56.2970   -12.9770     6.7750 h4         1 KJC       0.030600
     37 H4          58.1640    -9.6130     5.2820 h5         1 KJC       0.053100
     38 H5          56.8750    -9.4730     9.1910 h4         1 KJC       0.030600
     39 H6          54.8340   -11.4790    15.2010 hc         1 KJC       0.079700
     40 H7          54.0530   -10.0900    16.1010 hc         1 KJC       0.079700
     41 H8          55.1580   -17.5200    16.3660 hn         1 KJC       0.342500
     42 H9          56.6400   -19.8650    13.2680 h1         1 KJC       0.062367
     43 H10         56.1410   -19.5570    11.5880 h1         1 KJC       0.062367
     44 H11         57.7750   -19.1040    12.1280 h1         1 KJC       0.062367
     45 H12         54.9160   -13.9260    13.3960 hn         1 KJC       0.387500
     46 H13         54.7370    -9.5910     9.5830 ha         1 KJC       0.131000
     47 H14         53.7020    -8.8450    11.6780 ha         1 KJC       0.128000
     48 H15         55.9430   -13.0490     9.1780 hn         1 KJC       0.545000
     49 H16         51.7810   -10.9120    15.3430 hc         1 KJC       0.079700
     50 H17         52.5980   -12.2900    14.4570 hc         1 KJC       0.079700
     51 H18         53.9040   -15.1510    17.6350 h1         1 KJC       0.067700
     52 H19         53.6230   -16.8230    18.1400 h1         1 KJC       0.067700
     53 H20         56.7750   -17.3490    19.5020 ho         1 KJC       0.442000
     54 H21         57.4240   -15.0640    19.0410 hc         1 KJC       0.045367
     55 H22         57.0290   -15.4330    17.3540 hc         1 KJC       0.045367
     56 H23         56.2400   -14.0750    18.1750 hc         1 KJC       0.045367
     57 H24         55.7250   -15.5520    20.8760 hc         1 KJC       0.045367
     58 H25         54.5270   -14.5550    20.0420 hc         1 KJC       0.045367
     59 H26         54.1480   -16.2390    20.4500 hc         1 KJC       0.045367
@<TRIPOS>BOND
     1     1    13 2   
     2     1    14 1   
     3     2    12 2   
     4     2    14 1   
     5     2    34 1   
     6     3    13 1   
     7     3    15 2   
     8     3    16 1   
     9     4     6 1   
    10     4    20 ar  
    11     4    21 ar  
    12     5    21 ar  
    13     5    22 ar  
    14     5    23 1   
    15     6    11 1   
    16     6    28 1   
    17     6    35 1   
    18     7     8 ar  
    19     7    10 ar  
    20     7    25 1   
    21     8    26 ar  
    22     8    36 1   
    23     9    26 ar  
    24     9    27 ar  
    25     9    37 1   
    26    10    27 ar  
    27    10    38 1   
    28    11    28 1   
    29    11    39 1   
    30    11    40 1   
    31    12    13 1   
    32    12    18 1   
    33    14    17 1   
    34    16    29 1   
    35    16    41 1   
    36    17    42 1   
    37    17    43 1   
    38    17    44 1   
    39    18    23 1   
    40    18    45 1   
    41    19    20 ar  
    42    19    22 ar  
    43    19    46 1   
    44    20    47 1   
    45    22    25 1   
    46    23    24 2   
    47    25    48 1   
    48    28    49 1   
    49    28    50 1   
    50    29    30 1   
    51    29    51 1   
    52    29    52 1   
    53    30    31 1   
    54    30    32 1   
    55    30    33 1   
    56    31    53 1   
    57    32    54 1   
    58    32    55 1   
    59    32    56 1   
    60    33    57 1   
    61    33    58 1   
    62    33    59 1   
@<TRIPOS>SUBSTRUCTURE
     1 KJC         1 TEMP              0 ****  ****    0 ROOT
