@<TRIPOS>MOLECULE
KJD
   39    41     1     0     0
SMALL
No Charge or Current Charge


@<TRIPOS>ATOM
      1 C4          -0.4660    -1.3870    -0.0090 cp         1 KJD      -0.171000
      2 C14         -4.2340    -1.0050    -0.6030 ca         1 KJD      -0.011000
      3 C5           0.6620    -0.5340     0.0030 ca         1 KJD      -0.005000
      4 C6           3.1630    -0.1770    -0.0190 cp         1 KJD      -0.018000
      5 C11          5.3700     0.4480     0.8600 ca         1 KJD       0.127500
      6 C7          -1.8620    -0.8490     0.0330 cp         1 KJD       0.048000
      7 C8           3.2160     0.9590    -0.8630 ca         1 KJD      -0.123500
      8 C9           4.3280     1.8180    -0.8520 ca         1 KJD       0.127500
      9 C10          5.4170     1.5710     0.0080 ca         1 KJD       0.071100
     10 C12          4.2580    -0.4110     0.8470 ca         1 KJD      -0.123500
     11 C13         -2.9210    -1.5070    -0.6390 ca         1 KJD      -0.131000
     12 N1           1.0230    -3.3260    -0.1000 nb         1 KJD      -0.750000
     13 C3          -0.2130    -2.7820    -0.0600 ca         1 KJD       0.419900
     14 N3          -6.1620     1.8680    -1.0910 n8         1 KJD      -0.997100
     15 C1           1.9670    -1.0760    -0.0290 cp         1 KJD      -0.165000
     16 C2           2.0490    -2.4890    -0.0790 ca         1 KJD       0.630900
     17 C15         -4.5170     0.1750     0.1140 ca         1 KJD      -0.326500
     18 C16         -3.4780     0.8440     0.7900 ca         1 KJD      -0.011000
     19 C17         -2.1690     0.3360     0.7470 ca         1 KJD      -0.131000
     20 F1           4.3450     2.8890    -1.6790 f          1 KJD      -0.168000
     21 O1           6.5050     2.4150     0.0180 oh         1 KJD      -0.504100
     22 F2           6.3950     0.1870     1.7060 f          1 KJD      -0.168000
     23 S1          -6.1880     0.8260     0.1680 sy         1 KJD       1.143600
     24 O2          -6.3800     1.6590     1.3550 o          1 KJD      -0.529500
     25 O3          -7.1380    -0.2030    -0.2470 o          1 KJD      -0.529500
     26 H1          -5.0220    -1.5380    -1.1340 ha         1 KJD       0.135500
     27 H2           0.5310     0.5460     0.0340 ha         1 KJD       0.122000
     28 H3           2.3930     1.1710    -1.5410 ha         1 KJD       0.145000
     29 H4           4.2410    -1.2580     1.5280 ha         1 KJD       0.145000
     30 H5          -2.7260    -2.4110    -1.2090 ha         1 KJD       0.120500
     31 H6           3.9790    -2.7040    -0.5720 hn         1 KJD       0.484500
     32 H7           3.0570    -4.1520    -0.4560 hn         1 KJD       0.484500
     33 H8          -1.0390    -3.4920    -0.0610 h4         1 KJD       0.024100
     34 H9          -6.9490     1.5270    -1.6370 hn         1 KJD       0.475000
     35 H10         -5.3480     1.5470    -1.6090 hn         1 KJD       0.475000
     36 H11         -3.6780     1.7570     1.3510 ha         1 KJD       0.135500
     37 H12         -1.3880     0.8620     1.2880 ha         1 KJD       0.120500
     38 H13          6.3510     3.1320    -0.6360 ho         1 KJD       0.482000
     39 N2           3.1830    -3.1880    -0.1750 nv         1 KJD      -1.053900
@<TRIPOS>BOND
     1     1     3 ar  
     2     1     6 1   
     3     1    13 ar  
     4     2    11 ar  
     5     2    17 ar  
     6     2    26 1   
     7     3    15 ar  
     8     3    27 1   
     9     4     7 ar  
    10     4    10 ar  
    11     4    15 1   
    12     5     9 ar  
    13     5    10 ar  
    14     5    22 1   
    15     6    11 ar  
    16     6    19 ar  
    17     7     8 ar  
    18     7    28 1   
    19     8     9 ar  
    20     8    20 1   
    21     9    21 1   
    22    10    29 1   
    23    11    30 1   
    24    12    13 ar  
    25    12    16 ar  
    26    13    33 1   
    27    14    23 1   
    28    14    34 1   
    29    14    35 1   
    30    15    16 ar  
    31    16    39 1   
    32    17    18 ar  
    33    17    23 1   
    34    18    19 ar  
    35    18    36 1   
    36    19    37 1   
    37    21    38 1   
    38    23    24 2   
    39    23    25 2   
    40    31    39 1   
    41    32    39 1   
@<TRIPOS>SUBSTRUCTURE
     1 KJD         1 TEMP              0 ****  ****    0 ROOT
