@<TRIPOS>MOLECULE
KJD
   39    41     1     0     0
SMALL
bcc


@<TRIPOS>ATOM
      1 C4          -0.4830    -1.4170    -0.0430 cp         1 KJD      -0.236300
      2 C14         -4.1960    -1.0160    -0.5490 ca         1 KJD      -0.029000
      3 C5           0.6450    -0.5920    -0.0200 ca         1 KJD      -0.023000
      4 C6           3.0920    -0.2160    -0.0550 cp         1 KJD      -0.018000
      5 C11          5.1670     0.5040     0.9060 ca         1 KJD       0.092400
      6 C7          -1.8470    -0.8770     0.0250 cp         1 KJD       0.048000
      7 C8           3.1680     0.8460    -0.9520 ca         1 KJD      -0.141500
      8 C9           4.2400     1.7100    -0.8950 ca         1 KJD       0.092400
      9 C10          5.2710     1.5770     0.0260 ca         1 KJD       0.071100
     10 C12          4.1130    -0.3810     0.8820 ca         1 KJD      -0.141500
     11 C13         -2.9110    -1.5210    -0.6140 ca         1 KJD      -0.149000
     12 N1           0.9750    -3.3160    -0.1840 nb         1 KJD      -0.750000
     13 C3          -0.2340    -2.7820    -0.1160 ca         1 KJD       0.485200
     14 N3          -6.2790     1.7210    -1.1720 n8         1 KJD      -0.886700
     15 C1           1.9200    -1.1140    -0.0750 cp         1 KJD      -0.230300
     16 C2           2.0430    -2.5220    -0.1760 ca         1 KJD       0.696200
     17 C15         -4.4320     0.1600     0.1520 ca         1 KJD      -0.326500
     18 C16         -3.3950     0.8210     0.7960 ca         1 KJD      -0.029000
     19 C17         -2.1150     0.2980     0.7330 ca         1 KJD      -0.149000
     20 F1           4.3190     2.7320    -1.7630 f          1 KJD      -0.132900
     21 O1           6.3290     2.3940     0.1140 oh         1 KJD      -0.465100
     22 F2           6.1400     0.3530     1.8130 f          1 KJD      -0.132900
     23 S1          -6.0680     0.8360     0.1980 sy         1 KJD       1.285200
     24 O2          -6.1320     1.7760     1.3040 o          1 KJD      -0.600300
     25 O3          -7.0120    -0.2660     0.1200 o          1 KJD      -0.600300
     26 H1          -4.9990    -1.5360    -1.0540 ha         1 KJD       0.153500
     27 H2           0.5280     0.4840     0.0400 ha         1 KJD       0.140000
     28 H3           2.4050     0.9990    -1.7030 ha         1 KJD       0.163000
     29 H4           4.0820    -1.1830     1.6090 ha         1 KJD       0.163000
     30 H5          -2.7350    -2.4220    -1.1870 ha         1 KJD       0.138500
     31 H6           4.0530    -2.6010    -0.5490 hn         1 KJD       0.429300
     32 H7           3.2530    -4.0980    -0.5240 hn         1 KJD       0.429300
     33 H8          -1.0560    -3.4890    -0.1040 h4         1 KJD       0.024100
     34 H9          -6.2770     1.1690    -2.0220 hn         1 KJD       0.419800
     35 H10         -5.6520     2.5140    -1.2470 hn         1 KJD       0.419800
     36 H11         -3.5730     1.7280     1.3570 ha         1 KJD       0.153500
     37 H12         -1.3210     0.8060     1.2640 ha         1 KJD       0.138500
     38 H13          6.2760     3.1010    -0.5390 ho         1 KJD       0.443000
     39 N2           3.2530    -3.1310    -0.2440 nv         1 KJD      -0.943500
@<TRIPOS>BOND
     1     1     3 ar  
     2     1     6 1   
     3     1    13 ar  
     4     2    11 ar  
     5     2    17 ar  
     6     2    26 1   
     7     3    15 ar  
     8     3    27 1   
     9     4     7 ar  
    10     4    10 ar  
    11     4    15 1   
    12     5     9 ar  
    13     5    10 ar  
    14     5    22 1   
    15     6    11 ar  
    16     6    19 ar  
    17     7     8 ar  
    18     7    28 1   
    19     8     9 ar  
    20     8    20 1   
    21     9    21 1   
    22    10    29 1   
    23    11    30 1   
    24    12    13 ar  
    25    12    16 ar  
    26    13    33 1   
    27    14    23 1   
    28    14    34 1   
    29    14    35 1   
    30    15    16 ar  
    31    16    39 1   
    32    17    18 ar  
    33    17    23 1   
    34    18    19 ar  
    35    18    36 1   
    36    19    37 1   
    37    21    38 1   
    38    23    24 2   
    39    23    25 2   
    40    31    39 1   
    41    32    39 1   
@<TRIPOS>SUBSTRUCTURE
     1 KJD         1 TEMP              0 ****  ****    0 ROOT
