@<TRIPOS>MOLECULE
KJE
   50    53     1     0     0
SMALL
No Charge or Current Charge


@<TRIPOS>ATOM
      1 C1           3.8430    -0.2800     0.7080 ca         1 KJE      -0.086000
      2 N2           0.2940     2.4070    -0.2800 nh         1 KJE      -0.178700
      3 C3           3.9890    -1.6040    -1.3520 ca         1 KJE      -0.099000
      4 C4           2.5870    -1.7610    -1.3650 ca         1 KJE      -0.055000
      5 C6           2.4500    -0.4470     0.6760 ca         1 KJE      -0.141300
      6 C8           1.3970     0.0870     1.6280 c5         1 KJE      -0.115700
      7 C9           1.4760     1.6250     1.8370 c3         1 KJE      -0.075400
      8 C10          1.5100     2.4880     0.5480 c3         1 KJE       0.033600
      9 C11         -1.2480    -0.4760     1.4970 c3         1 KJE      -0.160000
     10 C12         -2.0430     0.8760     1.5320 c3         1 KJE      -0.052400
     11 C13         -2.0830     1.8520     0.2960 c6         1 KJE      -0.071500
     12 C15         -1.0510     1.0570    -1.8600 ce         1 KJE      -0.258800
     13 C16          0.2400     1.6470    -1.4520 ce         1 KJE       0.431500
     14 C17         -0.9620     2.9260     0.3030 c6         1 KJE       0.012600
     15 C18         -1.0840     0.3090    -3.1830 c3         1 KJE      -0.032200
     16 C2           4.6130    -0.8660    -0.3180 ca         1 KJE      -0.086000
     17 C5           1.8480    -1.1680    -0.3340 ca         1 KJE       0.059400
     18 N1           0.4720    -1.1800    -0.1440 ne         1 KJE      -0.516100
     19 C7           0.1480    -0.4670     0.9000 c2         1 KJE       0.372300
     20 C14         -2.1360     1.1370    -1.0500 c2         1 KJE      -0.050200
     21 C19         -1.4740     1.2210    -4.3600 c3         1 KJE      -0.096100
     22 C20         -2.1000    -1.6380     0.9540 c          1 KJE       0.612100
     23 O1          -2.2660    -2.6220     1.8960 os         1 KJE      -0.425100
     24 O2          -2.5840    -1.6850    -0.1690 o          1 KJE      -0.490000
     25 C21         -3.0410    -3.7810     1.5360 c3         1 KJE       0.151900
     26 H1           4.3200     0.2900     1.5040 ha         1 KJE       0.127000
     27 H2           4.5910    -2.0520    -2.1390 ha         1 KJE       0.136000
     28 H3           2.0910    -2.3230    -2.1530 ha         1 KJE       0.142000
     29 H4           0.6540     1.9560     2.4810 hc         1 KJE       0.077700
     30 H5           2.3880     1.8500     2.4030 hc         1 KJE       0.077700
     31 H6           2.3850     2.2000    -0.0500 h1         1 KJE       0.094200
     32 H7           1.6670     3.5360     0.8380 h1         1 KJE       0.094200
     33 H8          -1.0860    -0.7360     2.5490 hc         1 KJE       0.103700
     34 H9          -3.0800     0.6210     1.7900 hc         1 KJE       0.071200
     35 H10         -1.6940     1.4440     2.4040 hc         1 KJE       0.071200
     36 H11         -3.0290     2.4030     0.4110 hc         1 KJE       0.110700
     37 H12          1.1720     1.3910    -1.9590 h4         1 KJE       0.065800
     38 H13         -0.8100     3.3200     1.3190 h1         1 KJE       0.095700
     39 H14         -1.2950     3.7780    -0.3080 h1         1 KJE       0.095700
     40 H15         -0.1090    -0.1470    -3.3950 hc         1 KJE       0.073200
     41 H16         -1.7950    -0.5260    -3.1320 hc         1 KJE       0.073200
     42 H17          5.6950    -0.7500    -0.3150 ha         1 KJE       0.135000
     43 H19         -3.0930     0.6880    -1.3330 ha         1 KJE       0.241000
     44 H21         -1.4940     0.6500    -5.2970 hc         1 KJE       0.046033
     45 H22         -2.4690     1.6540    -4.2010 hc         1 KJE       0.046033
     46 H23         -0.7540     2.0400    -4.4720 hc         1 KJE       0.046033
     47 H24         -2.5900    -4.3050     0.6830 h1         1 KJE       0.059033
     48 H25         -3.0910    -4.4840     2.3770 h1         1 KJE       0.059033
     49 H26         -4.0680    -3.4990     1.2680 h1         1 KJE       0.059033
     50 H27          1.4840    -0.3850     2.6150 hc         1 KJE       0.115700
@<TRIPOS>BOND
     1     1     5 ar  
     2     1    16 ar  
     3     1    26 1   
     4     2     8 1   
     5     2    13 2   
     6     2    14 1   
     7     3     4 ar  
     8     3    16 ar  
     9     3    27 1   
    10     4    17 ar  
    11     4    28 1   
    12     5     6 1   
    13     5    17 ar  
    14     6     7 1   
    15     6    19 1   
    16     6    50 1   
    17     7     8 1   
    18     7    29 1   
    19     7    30 1   
    20     8    31 1   
    21     8    32 1   
    22     9    10 1   
    23     9    19 1   
    24     9    22 1   
    25     9    33 1   
    26    10    11 1   
    27    10    34 1   
    28    10    35 1   
    29    11    14 1   
    30    11    20 1   
    31    11    36 1   
    32    12    13 1   
    33    12    15 1   
    34    12    20 2   
    35    13    37 1   
    36    14    38 1   
    37    14    39 1   
    38    15    21 1   
    39    15    40 1   
    40    15    41 1   
    41    16    42 1   
    42    17    18 1   
    43    18    19 2   
    44    20    43 1   
    45    21    44 1   
    46    21    45 1   
    47    21    46 1   
    48    22    23 1   
    49    22    24 2   
    50    23    25 1   
    51    25    47 1   
    52    25    48 1   
    53    25    49 1   
@<TRIPOS>SUBSTRUCTURE
     1 KJE         1 TEMP              0 ****  ****    0 ROOT
