@<TRIPOS>MOLECULE
KJE
   50    53     1     0     0
SMALL
abcg2


@<TRIPOS>ATOM
      1 C1           3.7190    -0.2730     0.6190 ca         1 KJE      -0.086000
      2 N2           0.1830     2.2480    -0.2830 nh         1 KJE      -0.178700
      3 C3           3.6990    -1.7570    -1.2980 ca         1 KJE      -0.099000
      4 C4           2.3180    -1.9020    -1.2160 ca         1 KJE      -0.055000
      5 C6           2.3490    -0.4200     0.7060 ca         1 KJE      -0.141300
      6 C8           1.3270     0.1770     1.6260 c5         1 KJE      -0.115700
      7 C9           1.4260     1.7030     1.7560 c3         1 KJE      -0.075400
      8 C10          1.4350     2.4580     0.4310 c3         1 KJE       0.033600
      9 C11         -1.3100    -0.3460     1.6510 c3         1 KJE      -0.160000
     10 C12         -2.0650     0.9970     1.6180 c3         1 KJE      -0.052400
     11 C13         -2.1480     1.8780     0.3510 c6         1 KJE      -0.071500
     12 C15         -1.2170     1.0260    -1.7890 ce         1 KJE      -0.258800
     13 C16          0.0650     1.4470    -1.2830 ce         1 KJE       0.431500
     14 C17         -1.0230     2.8870     0.2370 c6         1 KJE       0.012600
     15 C18         -1.2530     0.3060    -3.1030 c3         1 KJE      -0.032200
     16 C2           4.3910    -0.9560    -0.3940 ca         1 KJE      -0.086000
     17 C5           1.6610    -1.2240    -0.2030 ca         1 KJE       0.059400
     18 N1           0.2830    -1.2260     0.0540 ne         1 KJE      -0.516100
     19 C7           0.0630    -0.4400     1.0420 c2         1 KJE       0.372300
     20 C14         -2.2640     1.1550    -0.9550 c2         1 KJE      -0.050200
     21 C19         -0.9440     1.2250    -4.2810 c3         1 KJE      -0.096100
     22 C20         -2.1560    -1.4830     1.1010 c          1 KJE       0.612100
     23 O1          -1.7830    -2.6450     1.6060 os         1 KJE      -0.425100
     24 O2          -3.0720    -1.3490     0.3320 o          1 KJE      -0.490000
     25 C21         -2.4470    -3.8150     1.1270 c3         1 KJE       0.151900
     26 H1           4.2670     0.3520     1.3140 ha         1 KJE       0.127000
     27 H2           4.2450    -2.2720    -2.0780 ha         1 KJE       0.136000
     28 H3           1.7730    -2.5200    -1.9180 ha         1 KJE       0.142000
     29 H4           0.6400     2.0780     2.4140 hc         1 KJE       0.077700
     30 H5           2.3640     1.9390     2.2600 hc         1 KJE       0.077700
     31 H6           2.2540     2.1310    -0.2070 h1         1 KJE       0.094200
     32 H7           1.5510     3.5260     0.6090 h1         1 KJE       0.094200
     33 H8          -1.1670    -0.5530     2.7180 hc         1 KJE       0.103700
     34 H9          -3.0820     0.7830     1.9460 hc         1 KJE       0.071200
     35 H10         -1.6470     1.6290     2.4030 hc         1 KJE       0.071200
     36 H11         -3.0550     2.4760     0.4710 hc         1 KJE       0.110700
     37 H12          0.9790     1.0380    -1.7020 h4         1 KJE       0.065800
     38 H13         -0.7910     3.3500     1.1930 h1         1 KJE       0.095700
     39 H14         -1.2920     3.6820    -0.4630 h1         1 KJE       0.095700
     40 H15         -0.5340    -0.5190    -3.0800 hc         1 KJE       0.073200
     41 H16         -2.2360    -0.1460    -3.2290 hc         1 KJE       0.073200
     42 H17          5.4650    -0.8590    -0.4820 ha         1 KJE       0.135000
     43 H19         -3.2170     0.7160    -1.2180 ha         1 KJE       0.241000
     44 H21         -0.9660     0.6680    -5.2170 hc         1 KJE       0.046033
     45 H22         -1.6730     2.0330    -4.3490 hc         1 KJE       0.046033
     46 H23          0.0460     1.6760    -4.1930 hc         1 KJE       0.046033
     47 H24         -2.3100    -3.9340     0.0520 h1         1 KJE       0.059033
     48 H25         -1.9870    -4.6520     1.6440 h1         1 KJE       0.059033
     49 H26         -3.5120    -3.7910     1.3540 h1         1 KJE       0.059033
     50 H27          1.4350    -0.2340     2.6380 hc         1 KJE       0.115700
@<TRIPOS>BOND
     1     1     5 ar  
     2     1    16 ar  
     3     1    26 1   
     4     2     8 1   
     5     2    13 2   
     6     2    14 1   
     7     3     4 ar  
     8     3    16 ar  
     9     3    27 1   
    10     4    17 ar  
    11     4    28 1   
    12     5     6 1   
    13     5    17 ar  
    14     6     7 1   
    15     6    19 1   
    16     6    50 1   
    17     7     8 1   
    18     7    29 1   
    19     7    30 1   
    20     8    31 1   
    21     8    32 1   
    22     9    10 1   
    23     9    19 1   
    24     9    22 1   
    25     9    33 1   
    26    10    11 1   
    27    10    34 1   
    28    10    35 1   
    29    11    14 1   
    30    11    20 1   
    31    11    36 1   
    32    12    13 1   
    33    12    15 1   
    34    12    20 2   
    35    13    37 1   
    36    14    38 1   
    37    14    39 1   
    38    15    21 1   
    39    15    40 1   
    40    15    41 1   
    41    16    42 1   
    42    17    18 1   
    43    18    19 2   
    44    20    43 1   
    45    21    44 1   
    46    21    45 1   
    47    21    46 1   
    48    22    23 1   
    49    22    24 2   
    50    23    25 1   
    51    25    47 1   
    52    25    48 1   
    53    25    49 1   
@<TRIPOS>SUBSTRUCTURE
     1 KJE         1 TEMP              0 ****  ****    0 ROOT
