@<TRIPOS>MOLECULE
KJF
   38    39     1     0     0
SMALL
No Charge or Current Charge


@<TRIPOS>ATOM
      1 C2          20.3470   -19.3640    -0.6630 c3         1 KJF       0.017300
      2 C3          19.8130   -19.3390     0.7890 c3         1 KJF      -0.107400
      3 C5          18.8640   -20.6490     2.7450 ca         1 KJF      -0.116300
      4 C6          19.7940   -20.9770     3.7510 ca         1 KJF      -0.101000
      5 C7          19.4200   -20.9240     5.1060 ca         1 KJF      -0.097000
      6 C8          18.1160   -20.5410     5.4620 ca         1 KJF      -0.084000
      7 C10         17.5590   -20.2640     3.1070 ca         1 KJF      -0.101000
      8 C11         21.1430   -18.0560    -0.9960 c          1 KJF       0.580100
      9 C14         23.3120   -16.7620    -0.8300 c5         1 KJF       0.089000
     10 C15         24.7480   -17.3080    -0.6110 c5         1 KJF      -0.092900
     11 C16         24.5230   -18.3550     0.5080 c5         1 KJF      -0.092900
     12 N1          19.2090   -19.6230    -1.6530 nz         1 KJF      -0.968000
     13 C4          19.2710   -20.6990     1.2790 c3         1 KJF      -0.027100
     14 C9          17.1850   -20.2110     4.4610 ca         1 KJF      -0.097000
     15 O12         20.6100   -17.1390    -1.6110 o          1 KJF      -0.603100
     16 N13         22.4860   -17.9640    -0.5820 n          1 KJF      -0.375800
     17 C17         23.2570   -19.0880    -0.0020 c5         1 KJF       0.089000
     18 H21         21.0700   -20.1810    -0.7530 hx         1 KJF       0.110700
     19 H22         20.6170   -19.0250     1.4670 hc         1 KJF       0.093700
     20 H23         19.0280   -18.5780     0.8790 hc         1 KJF       0.093700
     21 H26         20.8060   -21.2710     3.4850 ha         1 KJF       0.105500
     22 H27         20.1420   -21.1780     5.8790 ha         1 KJF       0.127500
     23 H28         17.8270   -20.5000     6.5100 ha         1 KJF       0.131000
     24 H30         16.8330   -20.0040     2.3400 ha         1 KJF       0.105500
     25 H31         23.0670   -15.9720    -0.1070 h1         1 KJF       0.064200
     26 H32         23.1780   -16.3600    -1.8440 h1         1 KJF       0.064200
     27 H33         25.1320   -17.7800    -1.5230 hc         1 KJF       0.073950
     28 H34         25.4560   -16.5220    -0.3260 hc         1 KJF       0.073950
     29 H35         25.3750   -19.0320     0.6390 hc         1 KJF       0.073950
     30 H36         24.3370   -17.8700     1.4740 hc         1 KJF       0.073950
     31 H18         18.6890   -20.4970    -1.4870 hn         1 KJF       0.518000
     32 H19         18.5040   -18.8680    -1.6580 hn         1 KJF       0.518000
     33 H24         18.4130   -20.9970     0.6650 hc         1 KJF       0.043200
     34 H25         20.0390   -21.4680     1.1280 hc         1 KJF       0.043200
     35 H29         16.1750   -19.9130     4.7360 ha         1 KJF       0.127500
     36 H37         22.7310   -19.5980     0.8150 h1         1 KJF       0.064200
     37 H38         23.5040   -19.8280    -0.7750 h1         1 KJF       0.064200
     38 H20         19.5310   -19.6770    -2.6330 hn         1 KJF       0.518000
@<TRIPOS>BOND
     1     1     2 1   
     2     1     8 1   
     3     1    12 1   
     4     1    18 1   
     5     2    13 1   
     6     2    19 1   
     7     2    20 1   
     8     3     4 ar  
     9     3     7 ar  
    10     3    13 1   
    11     4     5 ar  
    12     4    21 1   
    13     5     6 ar  
    14     5    22 1   
    15     6    14 ar  
    16     6    23 1   
    17     7    14 ar  
    18     7    24 1   
    19     8    15 2   
    20     8    16 1   
    21     9    10 1   
    22     9    16 1   
    23     9    25 1   
    24     9    26 1   
    25    10    11 1   
    26    10    27 1   
    27    10    28 1   
    28    11    17 1   
    29    11    29 1   
    30    11    30 1   
    31    12    31 1   
    32    12    32 1   
    33    12    38 1   
    34    13    33 1   
    35    13    34 1   
    36    14    35 1   
    37    16    17 1   
    38    17    36 1   
    39    17    37 1   
@<TRIPOS>SUBSTRUCTURE
     1 KJF         1 TEMP              0 ****  ****    0 ROOT
