@<TRIPOS>MOLECULE
KJF
   38    39     1     0     0
SMALL
abcg2


@<TRIPOS>ATOM
      1 C2          20.4390   -19.3940    -0.5560 c3         1 KJF       0.017300
      2 C3          19.9010   -19.3910     0.8750 c3         1 KJF      -0.107400
      3 C5          18.9010   -20.6890     2.7650 ca         1 KJF      -0.116300
      4 C6          19.7250   -21.0030     3.8420 ca         1 KJF      -0.101000
      5 C7          19.2550   -20.9110     5.1460 ca         1 KJF      -0.097000
      6 C8          17.9520   -20.4990     5.3900 ca         1 KJF      -0.084000
      7 C10         17.5970   -20.2730     3.0210 ca         1 KJF      -0.101000
      8 C11         21.1450   -18.0720    -0.8580 c          1 KJF       0.580100
      9 C14         23.2100   -16.7860    -0.8140 c5         1 KJF       0.089000
     10 C15         24.6550   -17.2570    -0.7190 c5         1 KJF      -0.092900
     11 C16         24.5820   -18.4040     0.2820 c5         1 KJF      -0.092900
     12 N1          19.3250   -19.5110    -1.5350 nz         1 KJF      -0.968000
     13 C4          19.4150   -20.7600     1.3530 c3         1 KJF      -0.027100
     14 C9          17.1230   -20.1780     4.3220 ca         1 KJF      -0.097000
     15 O12         20.4890   -17.1350    -1.2980 o          1 KJF      -0.603100
     16 N13         22.4430   -18.0100    -0.5820 n          1 KJF      -0.375800
     17 C17         23.2820   -19.1060    -0.0900 c5         1 KJF       0.089000
     18 H21         21.0860   -20.2560    -0.7220 hx         1 KJF       0.110700
     19 H22         20.7030   -19.0540     1.5350 hc         1 KJF       0.093700
     20 H23         19.1050   -18.6460     0.9580 hc         1 KJF       0.093700
     21 H26         20.7430   -21.3280     3.6590 ha         1 KJF       0.105500
     22 H27         19.9070   -21.1650     5.9720 ha         1 KJF       0.127500
     23 H28         17.5840   -20.4300     6.4050 ha         1 KJF       0.131000
     24 H30         16.9420   -20.0250     2.1920 ha         1 KJF       0.105500
     25 H31         22.9770   -16.0450    -0.0460 h1         1 KJF       0.064200
     26 H32         22.9650   -16.3530    -1.7840 h1         1 KJF       0.064200
     27 H33         24.9960   -17.6240    -1.6890 hc         1 KJF       0.073950
     28 H34         25.3260   -16.4570    -0.4090 hc         1 KJF       0.073950
     29 H35         25.4350   -19.0780     0.2320 hc         1 KJF       0.073950
     30 H36         24.5180   -18.0150     1.3000 hc         1 KJF       0.073950
     31 H18         18.6580   -20.2410    -1.2850 hn         1 KJF       0.518000
     32 H19         18.8150   -18.6250    -1.6010 hn         1 KJF       0.518000
     33 H24         18.6200   -21.1400     0.7050 hc         1 KJF       0.043200
     34 H25         20.2410   -21.4720     1.2870 hc         1 KJF       0.043200
     35 H29         16.1050   -19.8570     4.5030 ha         1 KJF       0.127500
     36 H37         22.8320   -19.6120     0.7640 h1         1 KJF       0.064200
     37 H38         23.4450   -19.8460    -0.8780 h1         1 KJF       0.064200
     38 H20         19.6650   -19.7320    -2.4730 hn         1 KJF       0.518000
@<TRIPOS>BOND
     1     1     2 1   
     2     1     8 1   
     3     1    12 1   
     4     1    18 1   
     5     2    13 1   
     6     2    19 1   
     7     2    20 1   
     8     3     4 ar  
     9     3     7 ar  
    10     3    13 1   
    11     4     5 ar  
    12     4    21 1   
    13     5     6 ar  
    14     5    22 1   
    15     6    14 ar  
    16     6    23 1   
    17     7    14 ar  
    18     7    24 1   
    19     8    15 2   
    20     8    16 1   
    21     9    10 1   
    22     9    16 1   
    23     9    25 1   
    24     9    26 1   
    25    10    11 1   
    26    10    27 1   
    27    10    28 1   
    28    11    17 1   
    29    11    29 1   
    30    11    30 1   
    31    12    31 1   
    32    12    32 1   
    33    12    38 1   
    34    13    33 1   
    35    13    34 1   
    36    14    35 1   
    37    16    17 1   
    38    17    36 1   
    39    17    37 1   
@<TRIPOS>SUBSTRUCTURE
     1 KJF         1 TEMP              0 ****  ****    0 ROOT
