@<TRIPOS>MOLECULE
KJG
   34    36     1     0     0
SMALL
bcc


@<TRIPOS>ATOM
      1 O1           1.2550    -2.3200     0.0450 o          1 KJG      -0.510100
      2 O2          -1.2510     2.3120     0.0080 o          1 KJG      -0.510100
      3 C            0.7750     1.1750     0.0110 cc         1 KJG       0.101900
      4 O            1.3550     2.3530     0.0090 oh         1 KJG      -0.448600
      5 C1           1.4800     0.0240     0.0160 cd         1 KJG      -0.197900
      6 C10         -5.0400     0.5620     1.0680 ca         1 KJG      -0.130500
      7 C11         -3.6540     0.5360     1.0800 ca         1 KJG      -0.100500
      8 C12          2.9550    -0.0130     0.0030 ca         1 KJG      -0.030800
      9 C13          3.6590    -0.5510     1.0780 ca         1 KJG      -0.100500
     10 C14          5.0460    -0.5850     1.0630 ca         1 KJG      -0.130500
     11 C15          5.7450    -0.0850    -0.0280 ca         1 KJG      -0.119000
     12 C16          5.0500     0.4500    -1.1040 ca         1 KJG      -0.130500
     13 C17          3.6630     0.4860    -1.0890 ca         1 KJG      -0.100500
     14 C2           0.7380    -1.2190     0.0320 c          1 KJG       0.550500
     15 C3          -0.7700    -1.1830     0.0300 cc         1 KJG       0.101900
     16 C4          -1.4740    -0.0320     0.0160 cd         1 KJG      -0.197900
     17 C5          -0.7330     1.2110     0.0120 c          1 KJG       0.550500
     18 C6          -2.9500     0.0030     0.0020 ca         1 KJG      -0.030800
     19 C7          -3.6560    -0.4960    -1.0900 ca         1 KJG      -0.100500
     20 C8          -5.0430    -0.4700    -1.1010 ca         1 KJG      -0.130500
     21 C9          -5.7390     0.0590    -0.0220 ca         1 KJG      -0.119000
     22 O3          -1.3500    -2.3600     0.0490 oh         1 KJG      -0.448600
     23 H1           0.6670     3.0420     0.0080 ho         1 KJG       0.460000
     24 H2          -5.5760     0.9750     1.9130 ha         1 KJG       0.131000
     25 H3          -3.1180     0.9220     1.9370 ha         1 KJG       0.131500
     26 H4           3.1230    -0.9360     1.9360 ha         1 KJG       0.131500
     27 H5           5.5800    -1.0020     1.9070 ha         1 KJG       0.131000
     28 H6           6.8270    -0.1140    -0.0390 ha         1 KJG       0.130000
     29 H7           5.5870     0.8400    -1.9580 ha         1 KJG       0.131000
     30 H8           3.1270     0.8960    -1.9360 ha         1 KJG       0.131500
     31 H9          -3.1190    -0.9020    -1.9380 ha         1 KJG       0.131500
     32 H10         -5.5800    -0.8610    -1.9560 ha         1 KJG       0.131000
     33 H11         -6.8210     0.0810    -0.0310 ha         1 KJG       0.130000
     34 H12         -0.6630    -3.0500     0.0630 ho         1 KJG       0.460000
@<TRIPOS>BOND
     1     1    14 2   
     2     2    17 2   
     3     3     4 1   
     4     3     5 2   
     5     3    17 1   
     6     4    23 1   
     7     5     8 1   
     8     5    14 1   
     9     6     7 ar  
    10     6    21 ar  
    11     6    24 1   
    12     7    18 ar  
    13     7    25 1   
    14     8     9 ar  
    15     8    13 ar  
    16     9    10 ar  
    17     9    26 1   
    18    10    11 ar  
    19    10    27 1   
    20    11    12 ar  
    21    11    28 1   
    22    12    13 ar  
    23    12    29 1   
    24    13    30 1   
    25    14    15 1   
    26    15    16 2   
    27    15    22 1   
    28    16    17 1   
    29    16    18 1   
    30    18    19 ar  
    31    19    20 ar  
    32    19    31 1   
    33    20    21 ar  
    34    20    32 1   
    35    21    33 1   
    36    22    34 1   
@<TRIPOS>SUBSTRUCTURE
     1 KJG         1 TEMP              0 ****  ****    0 ROOT
