@<TRIPOS>MOLECULE
KJG
   34    36     1     0     0
SMALL
No Charge or Current Charge


@<TRIPOS>ATOM
      1 O1           1.2880    -2.3660     0.0020 o          1 KJG      -0.510100
      2 O2          -1.2820     2.3510    -0.0080 o          1 KJG      -0.510100
      3 C            0.7730     1.1950     0.0660 cc         1 KJG       0.101900
      4 O            1.3500     2.4280     0.0960 oh         1 KJG      -0.487600
      5 C1           1.5000     0.0100     0.1120 cd         1 KJG      -0.197900
      6 C10         -5.1280     1.0020     0.7080 ca         1 KJG      -0.112500
      7 C11         -3.7240     0.9660     0.7700 ca         1 KJG      -0.082500
      8 C12          2.9910    -0.0200     0.0370 ca         1 KJG      -0.030800
      9 C13          3.7310    -0.9770     0.7710 ca         1 KJG      -0.082500
     10 C14          5.1350    -1.0130     0.7080 ca         1 KJG      -0.112500
     11 C15          5.8280    -0.0950    -0.0930 ca         1 KJG      -0.101000
     12 C16          5.1140     0.8590    -0.8310 ca         1 KJG      -0.112500
     13 C17          3.7100     0.8970    -0.7670 ca         1 KJG      -0.082500
     14 C2           0.7320    -1.2720     0.0630 c          1 KJG       0.550500
     15 C3          -0.7670    -1.2090     0.0720 cc         1 KJG       0.101900
     16 C4          -1.4940    -0.0250     0.1140 cd         1 KJG      -0.197900
     17 C5          -0.7260     1.2580     0.0580 c          1 KJG       0.550500
     18 C6          -2.9850     0.0050     0.0400 ca         1 KJG      -0.030800
     19 C7          -3.7050    -0.9160    -0.7590 ca         1 KJG      -0.082500
     20 C8          -5.1090    -0.8780    -0.8230 ca         1 KJG      -0.112500
     21 C9          -5.8230     0.0800    -0.0880 ca         1 KJG      -0.101000
     22 O3          -1.3450    -2.4420     0.1090 oh         1 KJG      -0.487600
     23 H1           0.6110     3.0800     0.0730 ho         1 KJG       0.499000
     24 H2          -5.6770     1.7430     1.2850 ha         1 KJG       0.113000
     25 H3          -3.2170     1.6750     1.4190 ha         1 KJG       0.113500
     26 H4           3.2240    -1.6830     1.4230 ha         1 KJG       0.113500
     27 H5           5.6840    -1.7520     1.2870 ha         1 KJG       0.113000
     28 H6           6.9150    -0.1240    -0.1430 ha         1 KJG       0.112000
     29 H7           5.6470     1.5680    -1.4620 ha         1 KJG       0.113000
     30 H8           3.1870     1.6260    -1.3790 ha         1 KJG       0.113500
     31 H9          -3.1830    -1.6470    -1.3680 ha         1 KJG       0.113500
     32 H10         -5.6430    -1.5890    -1.4490 ha         1 KJG       0.113000
     33 H11         -6.9090     0.1090    -0.1370 ha         1 KJG       0.112000
     34 H12         -0.6060    -3.0950     0.0880 ho         1 KJG       0.499000
@<TRIPOS>BOND
     1     1    14 2   
     2     2    17 2   
     3     3     4 1   
     4     3     5 2   
     5     3    17 1   
     6     4    23 1   
     7     5     8 1   
     8     5    14 1   
     9     6     7 ar  
    10     6    21 ar  
    11     6    24 1   
    12     7    18 ar  
    13     7    25 1   
    14     8     9 ar  
    15     8    13 ar  
    16     9    10 ar  
    17     9    26 1   
    18    10    11 ar  
    19    10    27 1   
    20    11    12 ar  
    21    11    28 1   
    22    12    13 ar  
    23    12    29 1   
    24    13    30 1   
    25    14    15 1   
    26    15    16 2   
    27    15    22 1   
    28    16    17 1   
    29    16    18 1   
    30    18    19 ar  
    31    19    20 ar  
    32    19    31 1   
    33    20    21 ar  
    34    20    32 1   
    35    21    33 1   
    36    22    34 1   
@<TRIPOS>SUBSTRUCTURE
     1 KJG         1 TEMP              0 ****  ****    0 ROOT
