@<TRIPOS>MOLECULE
KJH
   20    21     1     0     0
SMALL
bcc


@<TRIPOS>ATOM
      1 C10         -2.7660     0.9930     0.0090 ca         1 KJH      -0.114000
      2 C02         -0.4000     0.4830     0.0140 ca         1 KJH      -0.013800
      3 C03         -0.7240    -0.8840    -0.0060 ca         1 KJH      -0.074800
      4 C04          1.0180     0.8850     0.0260 cc         1 KJH      -0.155400
      5 C05          0.3320    -1.8760    -0.0100 cc         1 KJH      -0.042200
      6 C06         -1.4440     1.4070     0.0220 ca         1 KJH      -0.125000
      7 C07         -2.0590    -1.2930    -0.0200 ca         1 KJH      -0.103000
      8 C08          2.0800    -0.1720     0.0290 c          1 KJH       0.571500
      9 C09          1.6360    -1.5600     0.0070 cd         1 KJH      -0.242200
     10 C11         -3.0810    -0.3620    -0.0120 ca         1 KJH      -0.130000
     11 C12          1.4220     2.1620     0.0320 c2         1 KJH      -0.115000
     12 O01          3.2670     0.1110     0.0480 o          1 KJH      -0.531100
     13 H101        -3.5540     1.7340     0.0160 ha         1 KJH       0.133000
     14 H051         0.0360    -2.9180    -0.0260 ha         1 KJH       0.131000
     15 H061        -1.2400     2.4690     0.0400 ha         1 KJH       0.132000
     16 H071        -2.2870    -2.3520    -0.0360 ha         1 KJH       0.133000
     17 H091         2.3970    -2.3290     0.0060 ha         1 KJH       0.152000
     18 H111        -4.1140    -0.6830    -0.0230 ha         1 KJH       0.136000
     19 H122         0.7350     2.9960     0.0270 ha         1 KJH       0.129000
     20 H2           2.4740     2.4090     0.0400 ha         1 KJH       0.129000
@<TRIPOS>BOND
     1     1     6 ar  
     2     1    10 ar  
     3     1    13 1   
     4     2     3 ar  
     5     2     4 1   
     6     2     6 ar  
     7     3     5 1   
     8     3     7 ar  
     9     4     8 1   
    10     4    11 2   
    11     5     9 2   
    12     5    14 1   
    13     6    15 1   
    14     7    10 ar  
    15     7    16 1   
    16     8     9 1   
    17     8    12 2   
    18     9    17 1   
    19    10    18 1   
    20    11    19 1   
    21    11    20 1   
@<TRIPOS>SUBSTRUCTURE
     1 KJH         1 TEMP              0 ****  ****    0 ROOT
