@<TRIPOS>MOLECULE
KJH
   20    21     1     0     0
SMALL
No Charge or Current Charge


@<TRIPOS>ATOM
      1 C10         -2.7860     1.0060     0.0040 ca         1 KJH      -0.096000
      2 C02         -0.3850     0.4800     0.0130 ca         1 KJH      -0.013800
      3 C03         -0.7150    -0.9010    -0.0030 ca         1 KJH      -0.074800
      4 C04          1.0350     0.8900     0.0260 cc         1 KJH      -0.155400
      5 C05          0.3070    -1.9460    -0.0080 cc         1 KJH      -0.092200
      6 C06         -1.4450     1.4220     0.0160 ca         1 KJH      -0.107000
      7 C07         -2.0650    -1.3060    -0.0150 ca         1 KJH      -0.085000
      8 C08          2.0880    -0.1660     0.0210 c          1 KJH       0.571500
      9 C09          1.6310    -1.5650     0.0040 cd         1 KJH      -0.292200
     10 C11         -3.0970    -0.3590    -0.0120 ca         1 KJH      -0.112000
     11 C12          1.4420     2.2010     0.0420 c2         1 KJH      -0.215000
     12 O01          3.2880     0.0830     0.0310 o          1 KJH      -0.531100
     13 H101        -3.5850     1.7450     0.0070 ha         1 KJH       0.115000
     14 H051         0.0440    -3.0020    -0.0200 ha         1 KJH       0.181000
     15 H061        -1.2580     2.4890     0.0280 ha         1 KJH       0.114000
     16 H071        -2.3160    -2.3640    -0.0280 ha         1 KJH       0.115000
     17 H091         2.4310    -2.2960     0.0020 ha         1 KJH       0.202000
     18 H111        -4.1360    -0.6830    -0.0220 ha         1 KJH       0.118000
     19 H122         0.7480     3.0360     0.0460 ha         1 KJH       0.179000
     20 H2           2.5030     2.4550     0.0510 ha         1 KJH       0.179000
@<TRIPOS>BOND
     1     1     6 ar  
     2     1    10 ar  
     3     1    13 1   
     4     2     3 ar  
     5     2     4 1   
     6     2     6 ar  
     7     3     5 1   
     8     3     7 ar  
     9     4     8 1   
    10     4    11 2   
    11     5     9 2   
    12     5    14 1   
    13     6    15 1   
    14     7    10 ar  
    15     7    16 1   
    16     8     9 1   
    17     8    12 2   
    18     9    17 1   
    19    10    18 1   
    20    11    19 1   
    21    11    20 1   
@<TRIPOS>SUBSTRUCTURE
     1 KJH         1 TEMP              0 ****  ****    0 ROOT
