@<TRIPOS>MOLECULE
KJI
   38    40     1     0     0
SMALL
abcg2


@<TRIPOS>ATOM
      1 N1           8.7100    -0.1830    21.1580 ns         1 KJI      -0.141000
      2 N3           8.2670    -4.8180    23.7450 nb         1 KJI      -0.692000
      3 C4           8.0400     0.6430    18.9530 ca         1 KJI       0.331900
      4 C5           7.7610    -0.0540    20.1280 ca         1 KJI      -0.086000
      5 C6          10.0530    -0.3100    21.0380 c          1 KJI       0.580100
      6 C7          10.7910    -0.5530    22.3600 c3         1 KJI       0.140800
      7 C8           9.4380    -2.2280    23.5720 ca         1 KJI       0.364000
      8 C10          9.0310    -4.4520    22.7370 ca         1 KJI       0.390900
      9 C13          6.9790    -3.3740    26.8390 ca         1 KJI      -0.094000
     10 C15          8.3290    -1.6930    25.7590 ca         1 KJI      -0.095000
     11 O           10.6770    -0.2350    19.9890 o          1 KJI      -0.578100
     12 N            7.1560     0.7890    17.9640 nb         1 KJI      -0.648000
     13 C3           5.9470     0.2450    18.1260 ca         1 KJI       0.317900
     14 C2           5.5810    -0.4560    19.2670 ca         1 KJI      -0.146000
     15 C1           6.4920    -0.6270    20.3030 ca         1 KJI      -0.075300
     16 C            6.1400    -1.3980    21.5410 c3         1 KJI      -0.054800
     17 N2           9.9620    -0.9750    23.4610 nu         1 KJI      -0.992200
     18 C16          8.6170    -2.5800    24.6970 ca         1 KJI      -0.129000
     19 C14          7.5290    -2.0780    26.8070 ca         1 KJI      -0.115000
     20 C12          7.2390    -4.2570    25.8210 ca         1 KJI      -0.089000
     21 C11          8.0580    -3.8910    24.7270 ca         1 KJI       0.295000
     22 C9           9.6330    -3.1960    22.5960 ca         1 KJI      -0.270000
     23 H1           8.3520    -0.3220    22.0920 hn         1 KJI       0.163000
     24 H2           9.0120     1.0940    18.8160 h4         1 KJI       0.043100
     25 H3          11.5860    -1.2710    22.1480 h1         1 KJI       0.081700
     26 H4          11.2700     0.3870    22.6360 h1         1 KJI       0.081700
     27 H5           9.1940    -5.1920    21.9590 h4         1 KJI       0.020100
     28 H6           6.3500    -3.6710    27.6680 ha         1 KJI       0.119000
     29 H7           8.7330    -0.6890    25.7620 ha         1 KJI       0.100000
     30 H8           5.2410     0.3760    17.3140 h4         1 KJI       0.022100
     31 H9           4.5870    -0.8770    19.3460 ha         1 KJI       0.123000
     32 H10          6.8390    -2.2230    21.6980 hc         1 KJI       0.050367
     33 H11          6.1850    -0.7660    22.4320 hc         1 KJI       0.050367
     34 H12          5.1330    -1.8040    21.4670 hc         1 KJI       0.050367
     35 H13          9.8620    -0.3370    24.2290 hn         1 KJI       0.499000
     36 H14          7.3200    -1.3830    27.6100 ha         1 KJI       0.116000
     37 H15          6.8250    -5.2570    25.8270 ha         1 KJI       0.134000
     38 H16         10.2310    -3.0020    21.7180 ha         1 KJI       0.130000
@<TRIPOS>BOND
     1     1     4 1   
     2     1     5 1   
     3     1    23 1   
     4     2     8 ar  
     5     2    21 ar  
     6     3     4 ar  
     7     3    12 ar  
     8     3    24 1   
     9     4    15 ar  
    10     5     6 1   
    11     5    11 2   
    12     6    17 1   
    13     6    25 1   
    14     6    26 1   
    15     7    17 1   
    16     7    18 ar  
    17     7    22 ar  
    18     8    22 ar  
    19     8    27 1   
    20     9    19 ar  
    21     9    20 ar  
    22     9    28 1   
    23    10    18 ar  
    24    10    19 ar  
    25    10    29 1   
    26    12    13 ar  
    27    13    14 ar  
    28    13    30 1   
    29    14    15 ar  
    30    14    31 1   
    31    15    16 1   
    32    16    32 1   
    33    16    33 1   
    34    16    34 1   
    35    17    35 1   
    36    18    21 ar  
    37    19    36 1   
    38    20    21 ar  
    39    20    37 1   
    40    22    38 1   
@<TRIPOS>SUBSTRUCTURE
     1 KJI         1 TEMP              0 ****  ****    0 ROOT
