@<TRIPOS>MOLECULE
KJI
   38    40     1     0     0
SMALL
No Charge or Current Charge


@<TRIPOS>ATOM
      1 N1           8.8240    -0.3170    21.2440 ns         1 KJI      -0.141000
      2 N3           8.5940    -4.8970    23.5280 nb         1 KJI      -0.692000
      3 C4           7.8880     0.1370    18.9770 ca         1 KJI       0.331900
      4 C5           7.7270    -0.2260    20.3380 ca         1 KJI      -0.086000
      5 C6          10.1980    -0.3690    21.0380 c          1 KJI       0.580100
      6 C7          11.0440    -0.4300    22.3500 c3         1 KJI       0.140800
      7 C8           9.7640    -2.3470    23.5520 ca         1 KJI       0.364000
      8 C10          9.6530    -4.6100    22.7460 ca         1 KJI       0.390900
      9 C13          6.4200    -3.2510    25.9840 ca         1 KJI      -0.094000
     10 C15          8.0860    -1.6500    25.2320 ca         1 KJI      -0.095000
     11 O           10.7160    -0.3900    19.9250 o          1 KJI      -0.578100
     12 N            6.8560     0.2370    18.1050 nb         1 KJI      -0.648000
     13 C3           5.6140    -0.0260    18.5660 ca         1 KJI       0.317900
     14 C2           5.3560    -0.3880    19.8980 ca         1 KJI      -0.146000
     15 C1           6.4220    -0.4900    20.8110 ca         1 KJI      -0.075300
     16 C            6.1550    -0.8940    22.2570 c3         1 KJI      -0.054800
     17 N2          10.3650    -1.0840    23.5250 nu         1 KJI      -0.992200
     18 C16          8.6560    -2.6280    24.3800 ca         1 KJI      -0.129000
     19 C14          6.9730    -1.9640    26.0280 ca         1 KJI      -0.115000
     20 C12          6.9820    -4.2230    25.1400 ca         1 KJI      -0.089000
     21 C11          8.0960    -3.9300    24.3310 ca         1 KJI       0.295000
     22 C9          10.2610    -3.3550    22.7270 ca         1 KJI      -0.270000
     23 H1           8.5580    -0.3670    22.2190 hn         1 KJI       0.163000
     24 H2           8.8640     0.3770    18.5610 h4         1 KJI       0.043100
     25 H3          11.9750    -0.9590    22.1060 h1         1 KJI       0.081700
     26 H4          11.3130     0.6060    22.6000 h1         1 KJI       0.081700
     27 H5          10.0240    -5.4170    22.1150 h4         1 KJI       0.020100
     28 H6           5.5580    -3.4960    26.6000 ha         1 KJI       0.119000
     29 H7           8.4870    -0.6410    25.2840 ha         1 KJI       0.100000
     30 H8           4.8000     0.0580    17.8470 h4         1 KJI       0.022100
     31 H9           4.3340    -0.5870    20.2080 ha         1 KJI       0.123000
     32 H10          6.5970    -1.8730    22.4770 hc         1 KJI       0.050367
     33 H11          6.5750    -0.1650    22.9600 hc         1 KJI       0.050367
     34 H12          5.0810    -0.9660    22.4670 hc         1 KJI       0.050367
     35 H13         10.1320    -0.4790    24.3180 hn         1 KJI       0.499000
     36 H14          6.5390    -1.2070    26.6790 ha         1 KJI       0.116000
     37 H15          6.5470    -5.2180    25.1080 ha         1 KJI       0.134000
     38 H16         11.1150    -3.1870    22.0800 ha         1 KJI       0.130000
@<TRIPOS>BOND
     1     1     4 1   
     2     1     5 1   
     3     1    23 1   
     4     2     8 ar  
     5     2    21 ar  
     6     3     4 ar  
     7     3    12 ar  
     8     3    24 1   
     9     4    15 ar  
    10     5     6 1   
    11     5    11 2   
    12     6    17 1   
    13     6    25 1   
    14     6    26 1   
    15     7    17 1   
    16     7    18 ar  
    17     7    22 ar  
    18     8    22 ar  
    19     8    27 1   
    20     9    19 ar  
    21     9    20 ar  
    22     9    28 1   
    23    10    18 ar  
    24    10    19 ar  
    25    10    29 1   
    26    12    13 ar  
    27    13    14 ar  
    28    13    30 1   
    29    14    15 ar  
    30    14    31 1   
    31    15    16 1   
    32    16    32 1   
    33    16    33 1   
    34    16    34 1   
    35    17    35 1   
    36    18    21 ar  
    37    19    36 1   
    38    20    21 ar  
    39    20    37 1   
    40    22    38 1   
@<TRIPOS>SUBSTRUCTURE
     1 KJI         1 TEMP              0 ****  ****    0 ROOT
