@<TRIPOS>MOLECULE
KJJ
   82    87     1     0     0
SMALL
abcg2


@<TRIPOS>ATOM
      1 C13         -1.0200     1.1690    -0.3390 cp         1 KJJ       0.006000
      2 C18         -2.1680     1.8700     0.0220 ca         1 KJJ      -0.047300
      3 C17         -2.0270     3.2310     0.3310 ca         1 KJJ       0.369300
      4 C15          0.2310     3.1950    -0.1050 ca         1 KJJ       0.335300
      5 C19         -3.5410     1.2350     0.0250 c3         1 KJJ       0.052600
      6 C20         -4.2030     1.3050    -1.3850 c          1 KJJ       0.720000
      7 C34          5.1440     1.7960    -0.6870 cx         1 KJJ      -0.112700
      8 C2          -0.6580    -1.3040     0.0470 ca         1 KJJ      -0.038300
      9 C3          -1.0800    -0.2540    -0.7650 cp         1 KJJ      -0.010000
     10 C4          -1.5680    -0.5170    -2.0420 ca         1 KJJ      -0.072000
     11 C5          -1.6310    -1.8120    -2.4880 ca         1 KJJ       0.146000
     12 C6          -1.2240    -2.8810    -1.6990 ca         1 KJJ       0.088100
     13 C7          -0.7430    -2.6250    -0.4160 ca         1 KJJ      -0.147300
     14 C8          -0.3330    -3.7810     0.4560 c6         1 KJJ      -0.019100
     15 C9          -0.8730    -5.1000    -0.0780 c6         1 KJJ      -0.113400
     16 C10         -0.6520    -5.1670    -1.5720 c6         1 KJJ       0.164600
     17 O11         -1.3350    -4.1130    -2.2400 os         1 KJJ      -0.332100
     18 F12         -2.0960    -2.0740    -3.7240 f          1 KJJ      -0.174000
     19 C14          0.2100     1.8380    -0.3940 ca         1 KJJ      -0.132300
     20 N16         -0.8610     3.8600     0.2600 nb         1 KJJ      -0.698000
     21 O21         -5.0790     0.4660    -1.6330 o          1 KJJ      -0.706500
     22 O22         -3.8290     2.2480    -2.1110 o          1 KJJ      -0.706500
     23 O23         -3.5300    -0.0740     0.5160 os         1 KJJ      -0.426000
     24 C28         -3.1990     4.0840     0.7260 c3         1 KJJ      -0.141400
     25 C29          1.5020     3.9840    -0.2400 c6         1 KJJ      -0.115700
     26 C30          2.4950     3.2550    -1.1240 c6         1 KJJ       0.166800
     27 N31          2.6570     1.9060    -0.6250 n3         1 KJJ      -0.731600
     28 C32          1.4600     1.1230    -0.8340 c6         1 KJJ       0.219100
     29 C35          5.2570     2.6380     0.5410 cx         1 KJJ      -0.106400
     30 C36          5.8530     1.2640     0.5480 cx         1 KJJ      -0.085400
     31 C37          5.3130     0.1610     1.3770 ca         1 KJJ      -0.042300
     32 C38          4.0100     0.1420     1.8790 ca         1 KJJ      -0.105500
     33 C39          3.5700    -0.9080     2.6730 ca         1 KJJ      -0.115500
     34 C40          4.4140    -1.9670     2.9800 ca         1 KJJ      -0.117000
     35 C41          5.7090    -1.9650     2.4810 ca         1 KJJ      -0.115500
     36 C42          6.1500    -0.9130     1.6900 ca         1 KJJ      -0.105500
     37 H1          -4.1860     1.8700     0.6440 h1         1 KJJ       0.031700
     38 H2           5.8220     2.0590    -1.4910 hc         1 KJJ       0.066700
     39 H3          -3.8630     0.1330     3.8660 hc         1 KJJ       0.032700
     40 H4          -2.3840     0.2340     2.9070 hc         1 KJJ       0.032700
     41 H5          -3.5970     1.5120     2.8140 hc         1 KJJ       0.032700
     42 H6           3.8160     1.2400    -2.2640 h1         1 KJJ       0.036200
     43 H7           3.7430     0.1730    -0.8790 h1         1 KJJ       0.036200
     44 H8          -0.7180    -1.5790     2.1850 hc         1 KJJ       0.037700
     45 H9           0.8970    -1.4210     1.5320 hc         1 KJJ       0.037700
     46 H10         -0.1330    -0.0030     1.6910 hc         1 KJJ       0.037700
     47 H11         -1.9020     0.2910    -2.6800 ha         1 KJJ       0.169000
     48 H12          0.7600    -3.8260     0.5200 hc         1 KJJ       0.043700
     49 H13         -0.6830    -3.6240     1.4780 hc         1 KJJ       0.043700
     50 H14         -0.3730    -5.9430     0.4010 hc         1 KJJ       0.048700
     51 H15         -1.9400    -5.1940     0.1400 hc         1 KJJ       0.048700
     52 H16          0.4190    -5.1110    -1.7980 h1         1 KJJ       0.042700
     53 H17         -1.0390    -6.0910    -1.9990 h1         1 KJJ       0.042700
     54 H19         -4.4360    -2.4020     1.1770 hc         1 KJJ       0.032700
     55 H20         -2.9000    -2.1000     1.9860 hc         1 KJJ       0.032700
     56 H21         -4.3950    -2.1480     2.9250 hc         1 KJJ       0.032700
     57 H22         -5.8380     1.0560     1.6500 hc         1 KJJ       0.032700
     58 H23         -6.1250    -0.5150     0.9040 hc         1 KJJ       0.032700
     59 H24         -6.1140    -0.3460     2.6670 hc         1 KJJ       0.032700
     60 H25         -3.6590     3.7470     1.6580 hc         1 KJJ       0.047367
     61 H26         -2.8740     5.1120     0.8700 hc         1 KJJ       0.047367
     62 H27         -3.9750     4.0720    -0.0400 hc         1 KJJ       0.047367
     63 H28          1.2720     4.9710    -0.6480 hc         1 KJJ       0.053200
     64 H29          1.9490     4.1450     0.7460 hc         1 KJJ       0.053200
     65 H30          2.1510     3.2620    -2.1740 h1         1 KJJ       0.030700
     66 H31          3.4560     3.7700    -1.1070 h1         1 KJJ       0.030700
     67 H33          1.5700     0.1860    -0.2810 h1         1 KJJ       0.043200
     68 H34          1.3360     0.8310    -1.8930 h1         1 KJJ       0.043200
     69 H35          5.9360     3.4810     0.5310 hc         1 KJJ       0.078200
     70 H36          4.3520     2.7980     1.1150 hc         1 KJJ       0.078200
     71 H37          6.9330     1.2270     0.4500 hc         1 KJJ       0.067700
     72 H38          3.3250     0.9510     1.6520 ha         1 KJJ       0.123000
     73 H39          2.5600    -0.8900     3.0640 ha         1 KJJ       0.108500
     74 H40          4.0670    -2.7820     3.6030 ha         1 KJJ       0.106000
     75 H41          6.3840    -2.7790     2.7130 ha         1 KJJ       0.108500
     76 H42          7.1670    -0.9200     1.3150 ha         1 KJJ       0.123000
     77 C24         -4.1440    -0.3340     1.7690 c3         1 KJJ       0.194000
     78 C33          3.8190     1.2270    -1.1620 c3         1 KJJ       0.198800
     79 C25         -3.9570    -1.8340     1.9770 c3         1 KJJ      -0.100767
     80 C26         -5.6410    -0.0130     1.7420 c3         1 KJJ      -0.100767
     81 C1          -0.1280    -1.0580     1.4280 c3         1 KJJ      -0.045800
     82 C27         -3.4560     0.4320     2.8990 c3         1 KJJ      -0.100767
@<TRIPOS>BOND
     1     1     2 ar  
     2     1     9 1   
     3     1    19 ar  
     4     2     3 ar  
     5     2     5 1   
     6     3    20 ar  
     7     3    24 1   
     8     4    19 ar  
     9     4    20 ar  
    10     4    25 1   
    11     5     6 1   
    12     5    23 1   
    13     5    37 1   
    14     6    21 1   
    15     6    22 1   
    16     7    29 1   
    17     7    30 1   
    18     7    38 1   
    19     7    78 1   
    20     8     9 ar  
    21     8    13 ar  
    22     8    81 1   
    23     9    10 ar  
    24    10    11 ar  
    25    10    47 1   
    26    11    12 ar  
    27    11    18 1   
    28    12    13 ar  
    29    12    17 1   
    30    13    14 1   
    31    14    15 1   
    32    14    48 1   
    33    14    49 1   
    34    15    16 1   
    35    15    50 1   
    36    15    51 1   
    37    16    17 1   
    38    16    52 1   
    39    16    53 1   
    40    19    28 1   
    41    23    77 1   
    42    24    60 1   
    43    24    61 1   
    44    24    62 1   
    45    25    26 1   
    46    25    63 1   
    47    25    64 1   
    48    26    27 1   
    49    26    65 1   
    50    26    66 1   
    51    27    28 1   
    52    27    78 1   
    53    28    67 1   
    54    28    68 1   
    55    29    30 1   
    56    29    69 1   
    57    29    70 1   
    58    30    31 1   
    59    30    71 1   
    60    31    32 ar  
    61    31    36 ar  
    62    32    33 ar  
    63    32    72 1   
    64    33    34 ar  
    65    33    73 1   
    66    34    35 ar  
    67    34    74 1   
    68    35    36 ar  
    69    35    75 1   
    70    36    76 1   
    71    39    82 1   
    72    40    82 1   
    73    41    82 1   
    74    42    78 1   
    75    43    78 1   
    76    44    81 1   
    77    45    81 1   
    78    46    81 1   
    79    54    79 1   
    80    55    79 1   
    81    56    79 1   
    82    57    80 1   
    83    58    80 1   
    84    59    80 1   
    85    77    79 1   
    86    77    80 1   
    87    77    82 1   
@<TRIPOS>SUBSTRUCTURE
     1 KJJ         1 TEMP              0 ****  ****    0 ROOT
