@<TRIPOS>MOLECULE
KJJ
   82    87     1     0     0
SMALL
No Charge or Current Charge


@<TRIPOS>ATOM
      1 C13         -1.1490     1.2640    -0.6150 cp         1 KJJ       0.006000
      2 C18         -2.3740     1.9520    -0.3470 ca         1 KJJ      -0.047300
      3 C17         -2.3170     3.3620    -0.1650 ca         1 KJJ       0.369300
      4 C15         -0.0170     3.4190    -0.4720 ca         1 KJJ       0.335300
      5 C19         -3.7420     1.2290    -0.3000 c3         1 KJJ       0.052600
      6 C20         -4.3120     1.0090    -1.7470 c          1 KJJ       0.720000
      7 C34          4.9520     1.9320     0.2000 cx         1 KJJ      -0.112700
      8 C2          -0.5260    -1.0910     0.1830 ca         1 KJJ      -0.038300
      9 C3          -1.0770    -0.2190    -0.8100 cp         1 KJJ      -0.010000
     10 C4          -1.5210    -0.7690    -2.0320 ca         1 KJJ      -0.072000
     11 C5          -1.4410    -2.1430    -2.2760 ca         1 KJJ       0.146000
     12 C6          -0.8960    -3.0070    -1.3090 ca         1 KJJ       0.088100
     13 C7          -0.4500    -2.4890    -0.0660 ca         1 KJJ      -0.147300
     14 C8           0.1330    -3.4470     0.9900 c6         1 KJJ      -0.019100
     15 C9          -0.1790    -4.9240     0.6870 c6         1 KJJ      -0.113400
     16 C10          0.0450    -5.2010    -0.8060 c6         1 KJJ       0.164600
     17 O11         -0.8110    -4.3580    -1.6000 os         1 KJJ      -0.332100
     18 F12         -1.8680    -2.6290    -3.4660 f          1 KJJ      -0.174000
     19 C14          0.0430     2.0330    -0.7010 ca         1 KJJ      -0.132300
     20 N16         -1.1670     4.0700    -0.2100 nb         1 KJJ      -0.698000
     21 O21         -4.7470    -0.0910    -2.0680 o          1 KJJ      -0.706500
     22 O22         -4.2960     1.9600    -2.5180 o          1 KJJ      -0.706500
     23 O23         -3.6460    -0.0100     0.4710 os         1 KJJ      -0.426000
     24 C28         -3.5500     4.2200     0.1050 c3         1 KJJ      -0.141400
     25 C29          1.2370     4.2950    -0.4510 c6         1 KJJ      -0.115700
     26 C30          2.5000     3.5840    -0.9780 c6         1 KJJ       0.166800
     27 N31          2.5420     2.1820    -0.5100 n3         1 KJJ      -0.731600
     28 C32          1.3980     1.4180    -1.0520 c6         1 KJJ       0.219100
     29 C35          4.6900     2.1080     1.6800 cx         1 KJJ      -0.106400
     30 C36          5.5540     0.9630     1.2030 cx         1 KJJ      -0.085400
     31 C37          5.1100    -0.4740     1.2940 ca         1 KJJ      -0.042300
     32 C38          4.2750    -0.9170     2.3410 ca         1 KJJ      -0.105500
     33 C39          3.8490    -2.2560     2.3920 ca         1 KJJ      -0.115500
     34 C40          4.2580    -3.1630     1.4020 ca         1 KJJ      -0.117000
     35 C41          5.0990    -2.7330     0.3620 ca         1 KJJ      -0.115500
     36 C42          5.5240    -1.3940     0.3110 ca         1 KJJ      -0.105500
     37 H1          -4.4760     1.8870     0.1720 h1         1 KJJ       0.031700
     38 H2           5.6230     2.6560    -0.2550 hc         1 KJJ       0.066700
     39 H3          -3.6020     0.8720     3.7520 hc         1 KJJ       0.032700
     40 H4          -2.2870     0.9010     2.5640 hc         1 KJJ       0.032700
     41 H5          -3.6540     2.0240     2.4150 hc         1 KJJ       0.032700
     42 H6           4.1610     1.6650    -1.7880 h1         1 KJJ       0.036200
     43 H7           3.6910     0.4190    -0.6470 h1         1 KJJ       0.036200
     44 H8          -0.5150    -0.9560     2.3680 hc         1 KJJ       0.037700
     45 H9           1.0820    -0.7880     1.6250 hc         1 KJJ       0.037700
     46 H10         -0.0590     0.5480     1.5930 hc         1 KJJ       0.037700
     47 H11         -1.9220    -0.1180    -2.8030 ha         1 KJJ       0.169000
     48 H12          1.2220    -3.3090     1.0330 hc         1 KJJ       0.043700
     49 H13         -0.2510    -3.2120     1.9920 hc         1 KJJ       0.043700
     50 H14          0.4530    -5.5810     1.2990 hc         1 KJJ       0.048700
     51 H15         -1.2230    -5.1490     0.9480 hc         1 KJJ       0.048700
     52 H16          1.0920    -4.9950    -1.0710 h1         1 KJJ       0.042700
     53 H17         -0.1700    -6.2530    -1.0410 h1         1 KJJ       0.042700
     54 H19         -4.3440    -2.2240     1.7190 hc         1 KJJ       0.032700
     55 H20         -2.7460    -1.6910     2.2710 hc         1 KJJ       0.032700
     56 H21         -4.1340    -1.6100     3.3710 hc         1 KJJ       0.032700
     57 H22         -5.9180     1.2380     1.6350 hc         1 KJJ       0.032700
     58 H23         -6.1600    -0.4400     1.0970 hc         1 KJJ       0.032700
     59 H24         -6.0840    -0.0520     2.8260 hc         1 KJJ       0.032700
     60 H25         -4.0020     3.9680     1.0700 hc         1 KJJ       0.047367
     61 H26         -3.3090     5.2900     0.1320 hc         1 KJJ       0.047367
     62 H27         -4.3080     4.0820    -0.6740 hc         1 KJJ       0.047367
     63 H28          1.0700     5.2140    -1.0270 hc         1 KJJ       0.053200
     64 H29          1.4200     4.6080     0.5850 hc         1 KJJ       0.053200
     65 H30          2.4990     3.6120    -2.0780 h1         1 KJJ       0.030700
     66 H31          3.3870     4.1400    -0.6400 h1         1 KJJ       0.030700
     67 H33          1.4450     0.3890    -0.6750 h1         1 KJJ       0.043200
     68 H34          1.4720     1.3520    -2.1480 h1         1 KJJ       0.043200
     69 H35          5.1790     2.9360     2.1840 hc         1 KJJ       0.078200
     70 H36          3.6870     1.8900     2.0400 hc         1 KJJ       0.078200
     71 H37          6.6220     1.0630     1.3850 hc         1 KJJ       0.067700
     72 H38          3.9520    -0.2260     3.1150 ha         1 KJJ       0.123000
     73 H39          3.1990    -2.5880     3.1990 ha         1 KJJ       0.108500
     74 H40          3.9260    -4.1990     1.4410 ha         1 KJJ       0.106000
     75 H41          5.4180    -3.4340    -0.4050 ha         1 KJJ       0.108500
     76 H42          6.1700    -1.0650    -0.5010 ha         1 KJJ       0.123000
     77 C24         -4.1300    -0.0470     1.8370 c3         1 KJJ       0.194000
     78 C33          3.8330     1.5020    -0.7520 c3         1 KJJ       0.198800
     79 C25         -3.8180    -1.4790     2.3290 c3         1 KJJ      -0.100767
     80 C26         -5.6640     0.1930     1.8430 c3         1 KJJ      -0.100767
     81 C1           0.0200    -0.5400     1.5080 c3         1 KJJ      -0.045800
     82 C27         -3.3700     1.0030     2.6880 c3         1 KJJ      -0.100767
@<TRIPOS>BOND
     1     1     2 ar  
     2     1     9 1   
     3     1    19 ar  
     4     2     3 ar  
     5     2     5 1   
     6     3    20 ar  
     7     3    24 1   
     8     4    19 ar  
     9     4    20 ar  
    10     4    25 1   
    11     5     6 1   
    12     5    23 1   
    13     5    37 1   
    14     6    21 1   
    15     6    22 1   
    16     7    29 1   
    17     7    30 1   
    18     7    38 1   
    19     7    78 1   
    20     8     9 ar  
    21     8    13 ar  
    22     8    81 1   
    23     9    10 ar  
    24    10    11 ar  
    25    10    47 1   
    26    11    12 ar  
    27    11    18 1   
    28    12    13 ar  
    29    12    17 1   
    30    13    14 1   
    31    14    15 1   
    32    14    48 1   
    33    14    49 1   
    34    15    16 1   
    35    15    50 1   
    36    15    51 1   
    37    16    17 1   
    38    16    52 1   
    39    16    53 1   
    40    19    28 1   
    41    23    77 1   
    42    24    60 1   
    43    24    61 1   
    44    24    62 1   
    45    25    26 1   
    46    25    63 1   
    47    25    64 1   
    48    26    27 1   
    49    26    65 1   
    50    26    66 1   
    51    27    28 1   
    52    27    78 1   
    53    28    67 1   
    54    28    68 1   
    55    29    30 1   
    56    29    69 1   
    57    29    70 1   
    58    30    31 1   
    59    30    71 1   
    60    31    32 ar  
    61    31    36 ar  
    62    32    33 ar  
    63    32    72 1   
    64    33    34 ar  
    65    33    73 1   
    66    34    35 ar  
    67    34    74 1   
    68    35    36 ar  
    69    35    75 1   
    70    36    76 1   
    71    39    82 1   
    72    40    82 1   
    73    41    82 1   
    74    42    78 1   
    75    43    78 1   
    76    44    81 1   
    77    45    81 1   
    78    46    81 1   
    79    54    79 1   
    80    55    79 1   
    81    56    79 1   
    82    57    80 1   
    83    58    80 1   
    84    59    80 1   
    85    77    79 1   
    86    77    80 1   
    87    77    82 1   
@<TRIPOS>SUBSTRUCTURE
     1 KJJ         1 TEMP              0 ****  ****    0 ROOT
