@<TRIPOS>MOLECULE
KJL
  114   115     1     0     0
SMALL
bcc


@<TRIPOS>ATOM
      1 C01        150.0240   120.2220   168.6000 c3         1 KJL      -0.084100
      2 C02        150.1940   121.4870   167.7620 c3         1 KJL      -0.021500
      3 C03        150.6090   121.1640   166.3590 c2         1 KJL      -0.147200
      4 C04        151.5630   121.8130   165.6900 ce         1 KJL      -0.133000
      5 C05        151.8940   121.5910   164.2840 ce         1 KJL      -0.129000
      6 C06        152.0400   120.4260   163.6420 c2         1 KJL      -0.134400
      7 C07        152.1900   120.4470   162.1380 c3         1 KJL       0.179300
      8 C08        151.0060   119.7590   161.4400 c3         1 KJL      -0.084700
      9 C09        151.0670   119.9520   159.9040 c3         1 KJL       0.191300
     10 C10        150.1370   118.9990   159.2230 c2         1 KJL      -0.178200
     11 C11        149.0530   119.3270   158.5130 ce         1 KJL      -0.101000
     12 C12        148.1940   118.3680   157.8220 ce         1 KJL      -0.078200
     13 C13        147.0650   118.7530   157.2050 cf         1 KJL      -0.123000
     14 C14        146.4800   120.1100   157.1500 cf         1 KJL      -0.086200
     15 C15        145.8460   120.6770   158.1810 c2         1 KJL      -0.133200
     16 C16        145.6240   120.0580   159.5300 c3         1 KJL      -0.024500
     17 C17        145.7500   121.0900   160.6560 c3         1 KJL       0.190300
     18 C18        145.7760   120.3980   161.9880 c2         1 KJL      -0.209200
     19 C19        145.0900   120.7080   163.0900 c2         1 KJL      -0.100400
     20 C20        145.2630   119.8690   164.3390 c3         1 KJL      -0.022000
     21 C21        146.0930   120.5850   165.3580 c2         1 KJL      -0.095200
     22 C22        145.6590   121.2140   166.4570 ce         1 KJL      -0.164400
     23 C23        146.6200   121.9290   167.3330 c          1 KJL       0.640300
     24 C26        148.9130   122.3420   167.7810 c3         1 KJL       0.135800
     25 C27        149.1180   123.6700   167.1200 cc         1 KJL       0.325600
     26 C28        148.6940   124.0380   165.8830 cd         1 KJL      -0.187400
     27 C30        150.0140   125.6760   167.0710 cd         1 KJL       0.420700
     28 C32        150.7360   126.9010   167.5360 c3         1 KJL       0.137800
     29 C33        149.7810   128.0190   167.9490 c3         1 KJL      -0.093400
     30 C34        148.7740   127.6380   169.0360 c3         1 KJL      -0.055700
     31 C35        147.8680   128.8310   169.3240 c3         1 KJL      -0.089600
     32 C36        149.4510   127.1640   170.3190 c3         1 KJL      -0.089600
     33 C41        152.8500   127.9080   164.1880 c3         1 KJL       0.110300
     34 C42        144.2270   121.3350   166.8820 c3         1 KJL      -0.045900
     35 C43        144.1390   121.8560   163.2310 c3         1 KJL      -0.061900
     36 C45        144.2460   119.3960   159.5790 c3         1 KJL      -0.084100
     37 C46        146.5520   120.7770   155.8040 c3         1 KJL      -0.046900
     38 C47        148.6140   116.9270   157.7980 c3         1 KJL      -0.055900
     39 C49        149.6740   120.2380   162.0010 c3         1 KJL      -0.080100
     40 C52        152.0350   119.0780   164.2950 c3         1 KJL      -0.052900
     41 N31        149.8640   124.6050   167.7780 nc         1 KJL      -0.633000
     42 N40        153.2890   128.2910   165.5120 ns         1 KJL      -0.571900
     43 O24        146.2800   122.7190   168.1790 o          1 KJL      -0.525000
     44 O25        147.8970   121.6150   167.1000 os         1 KJL      -0.423900
     45 O37        151.5300   127.3110   166.4230 os         1 KJL      -0.446900
     46 O39        153.0390   128.3140   167.7680 o          1 KJL      -0.587000
     47 O44        146.9480   121.8160   160.4400 oh         1 KJL      -0.581800
     48 O48        150.7610   121.2690   159.5140 oh         1 KJL      -0.590800
     49 O50        153.3690   119.8010   161.7070 os         1 KJL      -0.409600
     50 S29        149.2420   125.6210   165.5290 ss         1 KJL      -0.135300
     51 H1         149.7090   120.4620   169.6170 hc         1 KJL       0.040367
     52 H2         149.2850   119.5490   168.1650 hc         1 KJL       0.040367
     53 H3         150.9680   119.6810   168.6620 hc         1 KJL       0.040367
     54 H4         150.9630   122.1130   168.2260 hc         1 KJL       0.074700
     55 H5         150.0470   120.3800   165.8590 ha         1 KJL       0.127000
     56 H6         152.0780   122.6360   166.1800 ha         1 KJL       0.126000
     57 H7         152.0080   122.5010   163.6990 ha         1 KJL       0.119000
     58 H8         152.2160   121.5070   161.8290 h1         1 KJL       0.025700
     59 H9         151.0990   118.6830   161.6270 hc         1 KJL       0.065700
     60 H10        152.0830   119.6830   159.5780 h1         1 KJL       0.047700
     61 H11        150.4110   117.9570   159.3510 ha         1 KJL       0.118000
     62 H12        148.7770   120.3710   158.4140 ha         1 KJL       0.156000
     63 H13        146.5140   117.9990   156.6450 ha         1 KJL       0.120000
     64 H14        145.3800   121.6470   158.0170 ha         1 KJL       0.120000
     65 H15        146.3820   119.2870   159.6980 hc         1 KJL       0.068700
     66 H16        144.8840   121.7640   160.5910 h1         1 KJL       0.032700
     67 H17        146.4520   119.5460   162.0390 ha         1 KJL       0.128000
     68 H18        144.2820   119.6010   164.7360 hc         1 KJL       0.059200
     69 H19        145.7700   118.9370   164.0800 hc         1 KJL       0.059200
     70 H20        147.1530   120.5970   165.1310 ha         1 KJL       0.139000
     71 H21        148.6310   122.5050   168.8260 h1         1 KJL       0.087700
     72 H22        148.1270   123.4710   165.1620 h4         1 KJL       0.183000
     73 H23        151.3750   126.6090   168.3730 h1         1 KJL       0.098700
     74 H24        150.3770   128.8660   168.3000 hc         1 KJL       0.057700
     75 H25        149.2380   128.3570   167.0600 hc         1 KJL       0.057700
     76 H26        148.1460   126.8250   168.6570 hc         1 KJL       0.053700
     77 H27        147.1090   128.5760   170.0650 hc         1 KJL       0.035867
     78 H28        148.4450   129.6720   169.7160 hc         1 KJL       0.035867
     79 H29        147.3530   129.1700   168.4240 hc         1 KJL       0.035867
     80 H30        148.7090   126.9860   171.1000 hc         1 KJL       0.035867
     81 H31        150.0020   126.2340   170.1810 hc         1 KJL       0.035867
     82 H32        150.1490   127.9170   170.6930 hc         1 KJL       0.035867
     83 H33        153.5830   128.2740   163.4750 h1         1 KJL       0.039700
     84 H34        152.7810   126.8260   164.0750 h1         1 KJL       0.039700
     85 H35        151.8850   128.3450   163.9320 h1         1 KJL       0.039700
     86 H36        143.8870   122.3700   166.8240 hc         1 KJL       0.049700
     87 H37        143.5650   120.7400   166.2580 hc         1 KJL       0.049700
     88 H38        144.0910   121.0110   167.9150 hc         1 KJL       0.049700
     89 H39        144.4640   122.5250   164.0310 hc         1 KJL       0.044700
     90 H40        144.0420   122.4470   162.3230 hc         1 KJL       0.044700
     91 H41        143.1450   121.4970   163.5090 hc         1 KJL       0.044700
     92 H42        144.0570   118.9360   160.5500 hc         1 KJL       0.035700
     93 H43        143.4540   120.1250   159.3950 hc         1 KJL       0.035700
     94 H44        144.1650   118.6180   158.8200 hc         1 KJL       0.035700
     95 H45        146.0290   121.7340   155.7990 hc         1 KJL       0.039700
     96 H46        147.5890   120.9520   155.5110 hc         1 KJL       0.039700
     97 H47        146.1100   120.1460   155.0290 hc         1 KJL       0.039700
     98 H48        148.6630   116.5140   158.8080 hc         1 KJL       0.039033
     99 H49        147.9140   116.3200   157.2260 hc         1 KJL       0.039033
    100 H50        149.6070   116.8040   157.3600 hc         1 KJL       0.039033
    101 H51        149.5410   119.9310   163.0380 hc         1 KJL       0.039033
    102 H52        149.5910   121.3250   161.9710 hc         1 KJL       0.039033
    103 H53        148.8420   119.8280   161.4320 hc         1 KJL       0.039033
    104 H54        155.3840   119.9460   161.6100 h1         1 KJL       0.029700
    105 H55        154.5510   121.5110   161.6550 h1         1 KJL       0.029700
    106 H56        154.7020   120.5440   163.1310 h1         1 KJL       0.029700
    107 H57        152.2020   119.1440   165.3690 hc         1 KJL       0.045033
    108 H58        151.0840   118.5590   164.1450 hc         1 KJL       0.045033
    109 H59        152.8090   118.4410   163.8650 hc         1 KJL       0.045033
    110 H60        154.1420   128.8150   165.6010 hn         1 KJL       0.336500
    111 H61        147.1010   122.3760   161.2080 ho         1 KJL       0.400000
    112 H62        151.4670   121.8540   159.8010 ho         1 KJL       0.399000
    113 C38        152.6560   128.0020   166.6590 c          1 KJL       0.762100
    114 C51        154.5470   120.4870   162.0480 c3         1 KJL       0.122700
@<TRIPOS>BOND
     1     1     2 1   
     2     1    51 1   
     3     1    52 1   
     4     1    53 1   
     5     2     3 1   
     6     2    24 1   
     7     2    54 1   
     8     3     4 2   
     9     3    55 1   
    10     4     5 1   
    11     4    56 1   
    12     5     6 2   
    13     5    57 1   
    14     6     7 1   
    15     6    40 1   
    16     7     8 1   
    17     7    49 1   
    18     7    58 1   
    19     8     9 1   
    20     8    39 1   
    21     8    59 1   
    22     9    10 1   
    23     9    48 1   
    24     9    60 1   
    25    10    11 2   
    26    10    61 1   
    27    11    12 1   
    28    11    62 1   
    29    12    13 2   
    30    12    38 1   
    31    13    14 1   
    32    13    63 1   
    33    14    15 2   
    34    14    37 1   
    35    15    16 1   
    36    15    64 1   
    37    16    17 1   
    38    16    36 1   
    39    16    65 1   
    40    17    18 1   
    41    17    47 1   
    42    17    66 1   
    43    18    19 2   
    44    18    67 1   
    45    19    20 1   
    46    19    35 1   
    47    20    21 1   
    48    20    68 1   
    49    20    69 1   
    50    21    22 2   
    51    21    70 1   
    52    22    23 1   
    53    22    34 1   
    54    23    43 2   
    55    23    44 1   
    56    24    25 1   
    57    24    44 1   
    58    24    71 1   
    59    25    26 2   
    60    25    41 1   
    61    26    50 1   
    62    26    72 1   
    63    27    28 1   
    64    27    41 2   
    65    27    50 1   
    66    28    29 1   
    67    28    45 1   
    68    28    73 1   
    69    29    30 1   
    70    29    74 1   
    71    29    75 1   
    72    30    31 1   
    73    30    32 1   
    74    30    76 1   
    75    31    77 1   
    76    31    78 1   
    77    31    79 1   
    78    32    80 1   
    79    32    81 1   
    80    32    82 1   
    81    33    42 1   
    82    33    83 1   
    83    33    84 1   
    84    33    85 1   
    85    34    86 1   
    86    34    87 1   
    87    34    88 1   
    88    35    89 1   
    89    35    90 1   
    90    35    91 1   
    91    36    92 1   
    92    36    93 1   
    93    36    94 1   
    94    37    95 1   
    95    37    96 1   
    96    37    97 1   
    97    38    98 1   
    98    38    99 1   
    99    38   100 1   
   100    39   101 1   
   101    39   102 1   
   102    39   103 1   
   103    40   107 1   
   104    40   108 1   
   105    40   109 1   
   106    42   110 1   
   107    42   113 1   
   108    45   113 1   
   109    46   113 2   
   110    47   111 1   
   111    48   112 1   
   112    49   114 1   
   113   104   114 1   
   114   105   114 1   
   115   106   114 1   
@<TRIPOS>SUBSTRUCTURE
     1 KJL         1 TEMP              0 ****  ****    0 ROOT
