@<TRIPOS>MOLECULE
KJL
  114   115     1     0     0
SMALL
No Charge or Current Charge


@<TRIPOS>ATOM
      1 C01        150.4270   120.0930   168.2680 c3         1 KJL      -0.084100
      2 C02        150.5600   121.4390   167.5220 c3         1 KJL      -0.021500
      3 C03        150.7990   121.2080   166.0400 c2         1 KJL      -0.197200
      4 C04        151.7320   121.8210   165.2810 ce         1 KJL      -0.183000
      5 C05        151.8750   121.6060   163.8350 ce         1 KJL      -0.179000
      6 C06        151.9390   120.4040   163.2080 c2         1 KJL      -0.134400
      7 C07        152.0590   120.3010   161.6820 c3         1 KJL       0.202500
      8 C08        150.8870   119.5330   160.9990 c3         1 KJL      -0.084700
      9 C09        151.0890   119.4270   159.4230 c3         1 KJL       0.214500
     10 C10        150.0760   118.5000   158.7730 c2         1 KJL      -0.228200
     11 C11        148.8760   118.8490   158.2450 ce         1 KJL      -0.151000
     12 C12        147.9130   117.9330   157.5970 ce         1 KJL      -0.078200
     13 C13        146.7310   118.3690   157.0690 cf         1 KJL      -0.173000
     14 C14        146.2220   119.7360   157.0810 cf         1 KJL      -0.086200
     15 C15        145.7340   120.3320   158.1960 c2         1 KJL      -0.183200
     16 C16        145.6390   119.7320   159.5960 c3         1 KJL      -0.024500
     17 C17        145.5280   120.8260   160.7020 c3         1 KJL       0.213500
     18 C18        145.5710   120.2730   162.1130 c2         1 KJL      -0.259200
     19 C19        145.1310   120.8700   163.2380 c2         1 KJL      -0.100400
     20 C20        145.1680   120.1750   164.5920 c3         1 KJL      -0.022000
     21 C21        146.1430   120.8410   165.5500 c2         1 KJL      -0.145200
     22 C22        145.8520   121.6270   166.6250 ce         1 KJL      -0.164400
     23 C23        146.9390   122.2320   167.4880 c          1 KJL       0.591300
     24 C26        149.3460   122.3720   167.7790 c3         1 KJL       0.159000
     25 C27        149.5650   123.7800   167.2480 cc         1 KJL       0.260300
     26 C28        149.2750   124.2080   165.9720 cd         1 KJL      -0.249000
     27 C30        150.2030   125.8920   167.4380 cd         1 KJL       0.420700
     28 C32        150.7270   127.1460   168.1160 c3         1 KJL       0.161000
     29 C33        149.6540   128.2690   168.2250 c3         1 KJL      -0.093400
     30 C34        148.3350   127.8650   168.9440 c3         1 KJL      -0.055700
     31 C35        147.3020   129.0130   168.8840 c3         1 KJL      -0.089600
     32 C36        148.5660   127.4120   170.4050 c3         1 KJL      -0.089600
     33 C41        153.7420   128.5970   165.6450 c3         1 KJL       0.110300
     34 C42        144.4070   121.9530   167.0040 c3         1 KJL      -0.045900
     35 C43        144.5030   122.2570   163.2960 c3         1 KJL      -0.061900
     36 C45        144.4580   118.7330   159.6610 c3         1 KJL      -0.084100
     37 C46        146.1620   120.4350   155.7350 c3         1 KJL      -0.046900
     38 C47        148.3020   116.4640   157.5010 c3         1 KJL      -0.055900
     39 C49        149.5100   120.1430   161.3750 c3         1 KJL      -0.080100
     40 C52        151.8870   119.0540   163.9230 c3         1 KJL      -0.052900
     41 N31        150.0940   124.7350   168.0830 nc         1 KJL      -0.633000
     42 N40        153.6750   128.9530   167.0650 ns         1 KJL      -0.504900
     43 O24        146.7330   123.0080   168.4120 o          1 KJL      -0.476000
     44 O25        148.1880   121.7860   167.1370 os         1 KJL      -0.447100
     45 O37        151.8420   127.6620   167.3490 os         1 KJL      -0.470100
     46 O39        152.7190   128.8320   169.1260 o          1 KJL      -0.538000
     47 O44        146.5970   121.7590   160.5850 oh         1 KJL      -0.644000
     48 O48        151.0860   120.6990   158.7080 oh         1 KJL      -0.653000
     49 O50        153.2920   119.6330   161.3460 os         1 KJL      -0.456000
     50 S29        149.6750   125.9000   165.7580 ss         1 KJL       0.009600
     51 H1         150.3070   120.2560   169.3460 hc         1 KJL       0.040367
     52 H2         149.5610   119.5250   167.9080 hc         1 KJL       0.040367
     53 H3         151.3240   119.4800   168.1160 hc         1 KJL       0.040367
     54 H4         151.4400   121.9430   167.9450 hc         1 KJL       0.074700
     55 H5         150.1150   120.4880   165.5890 ha         1 KJL       0.177000
     56 H6         152.3690   122.5940   165.7180 ha         1 KJL       0.176000
     57 H7         151.9770   122.5180   163.2430 ha         1 KJL       0.169000
     58 H8         152.0710   121.3170   161.2640 h1         1 KJL       0.025700
     59 H9         150.8980   118.5070   161.3830 hc         1 KJL       0.065700
     60 H10        152.0680   118.9530   159.2650 h1         1 KJL       0.047700
     61 H11        150.4150   117.4650   158.7530 ha         1 KJL       0.168000
     62 H12        148.5780   119.8990   158.2830 ha         1 KJL       0.206000
     63 H13        146.0970   117.6400   156.5610 ha         1 KJL       0.170000
     64 H14        145.3380   121.3460   158.1170 ha         1 KJL       0.170000
     65 H15        146.5550   119.1650   159.7970 hc         1 KJL       0.068700
     66 H16        144.5710   121.3450   160.5550 h1         1 KJL       0.032700
     67 H17        146.0030   119.2740   162.1730 ha         1 KJL       0.178000
     68 H18        144.1580   120.1290   165.0160 hc         1 KJL       0.059200
     69 H19        145.4670   119.1270   164.4670 hc         1 KJL       0.059200
     70 H20        147.1790   120.6270   165.2840 ha         1 KJL       0.189000
     71 H21        149.1950   122.4340   168.8660 h1         1 KJL       0.087700
     72 H22        148.8620   123.6270   165.1580 h4         1 KJL       0.165000
     73 H23        151.0590   126.8570   169.1220 h1         1 KJL       0.098700
     74 H24        150.0840   129.1310   168.7500 hc         1 KJL       0.057700
     75 H25        149.4120   128.6160   167.2130 hc         1 KJL       0.057700
     76 H26        147.8950   127.0170   168.4030 hc         1 KJL       0.053700
     77 H27        146.3550   128.7070   169.3430 hc         1 KJL       0.035867
     78 H28        147.6710   129.8990   169.4140 hc         1 KJL       0.035867
     79 H29        147.0960   129.2960   167.8440 hc         1 KJL       0.035867
     80 H30        147.6120   127.1710   170.8900 hc         1 KJL       0.035867
     81 H31        149.1920   126.5130   170.4490 hc         1 KJL       0.035867
     82 H32        149.0540   128.2030   170.9870 hc         1 KJL       0.035867
     83 H33        154.5960   129.1060   165.1800 h1         1 KJL       0.039700
     84 H34        153.8670   127.5120   165.5400 h1         1 KJL       0.039700
     85 H35        152.8180   128.9090   165.1410 h1         1 KJL       0.039700
     86 H36        144.3280   122.6670   167.8320 hc         1 KJL       0.049700
     87 H37        143.8620   122.3910   166.1610 hc         1 KJL       0.049700
     88 H38        143.8700   121.0490   167.3110 hc         1 KJL       0.049700
     89 H39        145.0770   122.9240   163.9500 hc         1 KJL       0.044700
     90 H40        144.4490   122.7420   162.3160 hc         1 KJL       0.044700
     91 H41        143.4790   122.2070   163.6850 hc         1 KJL       0.044700
     92 H42        144.4100   118.2360   160.6370 hc         1 KJL       0.035700
     93 H43        143.5060   119.2490   159.4910 hc         1 KJL       0.035700
     94 H44        144.5660   117.9540   158.8980 hc         1 KJL       0.035700
     95 H45        145.2680   121.0640   155.6480 hc         1 KJL       0.039700
     96 H46        147.0380   121.0780   155.5890 hc         1 KJL       0.039700
     97 H47        146.1370   119.7160   154.9070 hc         1 KJL       0.039700
     98 H48        148.4320   116.0230   158.4960 hc         1 KJL       0.039033
     99 H49        147.5400   115.8690   156.9830 hc         1 KJL       0.039033
    100 H50        149.2400   116.3360   156.9480 hc         1 KJL       0.039033
    101 H51        149.3630   120.1630   162.4610 hc         1 KJL       0.039033
    102 H52        149.4230   121.1700   161.0020 hc         1 KJL       0.039033
    103 H53        148.6910   119.5520   160.9520 hc         1 KJL       0.039033
    104 H54        155.3780   119.7800   161.3610 h1         1 KJL       0.029700
    105 H55        154.5190   121.3320   161.2410 h1         1 KJL       0.029700
    106 H56        154.5760   120.4570   162.7920 h1         1 KJL       0.029700
    107 H57        152.2310   119.1290   164.9600 hc         1 KJL       0.045033
    108 H58        150.8670   118.6540   163.9380 hc         1 KJL       0.045033
    109 H59        152.5270   118.3080   163.4380 hc         1 KJL       0.045033
    110 H60        154.3720   129.5830   167.4430 hn         1 KJL       0.336500
    111 H61        146.6610   122.1930   161.4600 ho         1 KJL       0.439000
    112 H62        151.8840   121.1870   159.0030 ho         1 KJL       0.438000
    113 C38        152.7310   128.5070   167.9520 c          1 KJL       0.646100
    114 C51        154.4960   120.3370   161.7040 c3         1 KJL       0.145900
@<TRIPOS>BOND
     1     1     2 1   
     2     1    51 1   
     3     1    52 1   
     4     1    53 1   
     5     2     3 1   
     6     2    24 1   
     7     2    54 1   
     8     3     4 2   
     9     3    55 1   
    10     4     5 1   
    11     4    56 1   
    12     5     6 2   
    13     5    57 1   
    14     6     7 1   
    15     6    40 1   
    16     7     8 1   
    17     7    49 1   
    18     7    58 1   
    19     8     9 1   
    20     8    39 1   
    21     8    59 1   
    22     9    10 1   
    23     9    48 1   
    24     9    60 1   
    25    10    11 2   
    26    10    61 1   
    27    11    12 1   
    28    11    62 1   
    29    12    13 2   
    30    12    38 1   
    31    13    14 1   
    32    13    63 1   
    33    14    15 2   
    34    14    37 1   
    35    15    16 1   
    36    15    64 1   
    37    16    17 1   
    38    16    36 1   
    39    16    65 1   
    40    17    18 1   
    41    17    47 1   
    42    17    66 1   
    43    18    19 2   
    44    18    67 1   
    45    19    20 1   
    46    19    35 1   
    47    20    21 1   
    48    20    68 1   
    49    20    69 1   
    50    21    22 2   
    51    21    70 1   
    52    22    23 1   
    53    22    34 1   
    54    23    43 2   
    55    23    44 1   
    56    24    25 1   
    57    24    44 1   
    58    24    71 1   
    59    25    26 2   
    60    25    41 1   
    61    26    50 1   
    62    26    72 1   
    63    27    28 1   
    64    27    41 2   
    65    27    50 1   
    66    28    29 1   
    67    28    45 1   
    68    28    73 1   
    69    29    30 1   
    70    29    74 1   
    71    29    75 1   
    72    30    31 1   
    73    30    32 1   
    74    30    76 1   
    75    31    77 1   
    76    31    78 1   
    77    31    79 1   
    78    32    80 1   
    79    32    81 1   
    80    32    82 1   
    81    33    42 1   
    82    33    83 1   
    83    33    84 1   
    84    33    85 1   
    85    34    86 1   
    86    34    87 1   
    87    34    88 1   
    88    35    89 1   
    89    35    90 1   
    90    35    91 1   
    91    36    92 1   
    92    36    93 1   
    93    36    94 1   
    94    37    95 1   
    95    37    96 1   
    96    37    97 1   
    97    38    98 1   
    98    38    99 1   
    99    38   100 1   
   100    39   101 1   
   101    39   102 1   
   102    39   103 1   
   103    40   107 1   
   104    40   108 1   
   105    40   109 1   
   106    42   110 1   
   107    42   113 1   
   108    45   113 1   
   109    46   113 2   
   110    47   111 1   
   111    48   112 1   
   112    49   114 1   
   113   104   114 1   
   114   105   114 1   
   115   106   114 1   
@<TRIPOS>SUBSTRUCTURE
     1 KJL         1 TEMP              0 ****  ****    0 ROOT
