@<TRIPOS>MOLECULE
KJM
   27    28     1     0     0
SMALL
No Charge or Current Charge


@<TRIPOS>ATOM
      1 N1           2.2840    -0.7710    -2.0570 nv         1 KJM      -1.091200
      2 C4           1.8970    -0.2680     1.7180 cy         1 KJM      -0.074400
      3 C5           2.0610    -1.0990    -0.7650 c2         1 KJM       0.637200
      4 C6          -0.9320    -0.3570     0.3790 ca         1 KJM      -0.090000
      5 C7          -0.1680     1.5680    -0.8910 ca         1 KJM      -0.106000
      6 C8           2.1550     1.2670     1.8450 cy         1 KJM      -0.093400
      7 C10         -1.5030     1.9240    -1.1520 ca         1 KJM      -0.104000
      8 C1           1.5880     0.0060     0.1860 cy         1 KJM      -0.075000
      9 C11         -2.5530     1.1430    -0.6440 ca         1 KJM      -0.103000
     10 C2           0.1330     0.4300    -0.1080 ca         1 KJM      -0.051300
     11 C3           2.6550     1.1650     0.3690 cy         1 KJM      -0.074400
     12 C9          -2.2650     0.0000     0.1170 ca         1 KJM       0.121000
     13 N2           2.2580    -2.3030    -0.4430 n2         1 KJM      -0.837100
     14 Cl1         -3.5770    -0.9920     0.7410 cl         1 KJM      -0.206000
     15 H1           3.1540    -1.1360    -2.4290 hn         1 KJM       0.468000
     16 H2           2.1420     0.2140    -2.2530 hn         1 KJM       0.468000
     17 H4           1.0760    -0.6610     2.3280 hc         1 KJM       0.059200
     18 H5          -0.7310    -1.2540     0.9590 ha         1 KJM       0.143000
     19 H6           0.6230     2.1830    -1.3090 ha         1 KJM       0.111000
     20 H7           1.2550     1.8770     1.9870 hc         1 KJM       0.053700
     21 H8           2.9030     1.5690     2.5860 hc         1 KJM       0.053700
     22 H9          -1.7230     2.8050    -1.7520 ha         1 KJM       0.116000
     23 H10         -3.5860     1.4160    -0.8460 ha         1 KJM       0.128000
     24 H11          2.5370     2.0680    -0.2360 hc         1 KJM       0.059200
     25 H12          3.6990     0.8400     0.2740 hc         1 KJM       0.059200
     26 H13          2.5160    -2.8090    -1.2980 hn         1 KJM       0.371400
     27 H3           2.7830    -0.8850     1.9110 hc         1 KJM       0.059200
@<TRIPOS>BOND
     1     1     3 1   
     2     1    15 1   
     3     1    16 1   
     4     2     6 1   
     5     2     8 1   
     6     2    17 1   
     7     2    27 1   
     8     3     8 1   
     9     3    13 2   
    10     4    10 ar  
    11     4    12 ar  
    12     4    18 1   
    13     5     7 ar  
    14     5    10 ar  
    15     5    19 1   
    16     6    11 1   
    17     6    20 1   
    18     6    21 1   
    19     7     9 ar  
    20     7    22 1   
    21     8    10 1   
    22     8    11 1   
    23     9    12 ar  
    24     9    23 1   
    25    11    24 1   
    26    11    25 1   
    27    12    14 1   
    28    13    26 1   
@<TRIPOS>SUBSTRUCTURE
     1 KJM         1 TEMP              0 ****  ****    0 ROOT
