@<TRIPOS>MOLECULE
KJM
   27    28     1     0     0
SMALL
bcc


@<TRIPOS>ATOM
      1 N1           2.2160    -0.6610    -1.9880 nv         1 KJM      -0.980800
      2 C4           1.8180    -0.1720     1.7390 cy         1 KJM      -0.074400
      3 C5           2.0100    -1.0600    -0.7040 c2         1 KJM       0.637200
      4 C6          -0.8410    -0.4200     0.2730 ca         1 KJM      -0.108000
      5 C7          -0.1550     1.6100    -0.7980 ca         1 KJM      -0.124000
      6 C8           2.3300     1.2720     1.8540 cy         1 KJM      -0.093400
      7 C10         -1.4820     1.8970    -1.0990 ca         1 KJM      -0.122000
      8 C1           1.6080     0.0630     0.2260 cy         1 KJM      -0.075000
      9 C11         -2.4980     1.0360    -0.7180 ca         1 KJM      -0.121000
     10 C2           0.1800     0.4540    -0.1030 ca         1 KJM      -0.051300
     11 C3           2.6020     1.2490     0.3430 cy         1 KJM      -0.074400
     12 C9          -2.1560    -0.1220    -0.0350 ca         1 KJM       0.029400
     13 N2           2.0680    -2.2530    -0.2570 n2         1 KJM      -0.837100
     14 CL1         -3.4080    -1.2240     0.4470 cl         1 KJM      -0.114400
     15 H1           2.6400    -1.2980    -2.6410 hn         1 KJM       0.412800
     16 H2           2.3690     0.3130    -2.1860 hn         1 KJM       0.412800
     17 H4           0.9480    -0.4610     2.3300 hc         1 KJM       0.059200
     18 H5          -0.6010    -1.3350     0.7980 ha         1 KJM       0.161000
     19 H6           0.6120     2.3030    -1.1160 ha         1 KJM       0.129000
     20 H7           1.5310     1.9690     2.1090 hc         1 KJM       0.053700
     21 H8           3.1780     1.4550     2.5130 hc         1 KJM       0.053700
     22 H9          -1.7270     2.8040    -1.6360 ha         1 KJM       0.134000
     23 H10         -3.5300     1.2610    -0.9480 ha         1 KJM       0.146000
     24 H11          2.4140     2.1550    -0.2320 hc         1 KJM       0.059200
     25 H12          3.6190     0.9150     0.1290 hc         1 KJM       0.059200
     26 H13          2.3260    -2.9090    -0.9920 hn         1 KJM       0.371400
     27 H3           2.6110    -0.8990     1.9100 hc         1 KJM       0.059200
@<TRIPOS>BOND
     1     1     3 1   
     2     1    15 1   
     3     1    16 1   
     4     2     6 1   
     5     2     8 1   
     6     2    17 1   
     7     2    27 1   
     8     3     8 1   
     9     3    13 2   
    10     4    10 ar  
    11     4    12 ar  
    12     4    18 1   
    13     5     7 ar  
    14     5    10 ar  
    15     5    19 1   
    16     6    11 1   
    17     6    20 1   
    18     6    21 1   
    19     7     9 ar  
    20     7    22 1   
    21     8    10 1   
    22     8    11 1   
    23     9    12 ar  
    24     9    23 1   
    25    11    24 1   
    26    11    25 1   
    27    12    14 1   
    28    13    26 1   
@<TRIPOS>SUBSTRUCTURE
     1 KJM         1 TEMP              0 ****  ****    0 ROOT
