@<TRIPOS>MOLECULE
KJN
   34    34     1     0     0
SMALL
bcc


@<TRIPOS>ATOM
      1 C1          22.9160   -16.7570    -0.9270 c3         1 KJN       0.074300
      2 C3          23.1070   -19.0190     0.0440 c3         1 KJN       0.074300
      3 C6          20.3060   -19.5020    -0.6450 c3         1 KJN       0.050500
      4 C8          19.7430   -19.4430     0.7740 c3         1 KJN      -0.109400
      5 C10         18.7130   -20.6530     2.7040 ca         1 KJN      -0.117300
      6 C11         17.4190   -20.2070     2.9670 ca         1 KJN      -0.119000
      7 C12         16.9710   -20.0590     4.2730 ca         1 KJN      -0.115000
      8 C13         17.8140   -20.3540     5.3370 ca         1 KJN      -0.102000
      9 C14         19.1060   -20.7970     5.0860 ca         1 KJN      -0.115000
     10 C15         19.5500   -20.9440     3.7780 ca         1 KJN      -0.119000
     11 N2          22.2770   -18.0230    -0.6060 n          1 KJN      -0.432800
     12 C4          21.0120   -18.1900    -0.9970 c          1 KJN       0.643100
     13 O5          20.3770   -17.3250    -1.5870 o          1 KJN      -0.601100
     14 N7          19.2110   -19.6640    -1.6390 nz         1 KJN      -0.830600
     15 C9          19.2020   -20.7790     1.2880 c3         1 KJN      -0.026100
     16 H22         23.9240   -16.7640    -0.5220 h1         1 KJN       0.063200
     17 H20         22.9800   -16.6040    -2.0050 h1         1 KJN       0.063200
     18 H21         22.3760   -15.9180    -0.4890 h1         1 KJN       0.063200
     19 H23         22.5390   -19.8850     0.3690 h1         1 KJN       0.063200
     20 H25         23.8950   -19.3630    -0.6280 h1         1 KJN       0.063200
     21 H24         23.5710   -18.5880     0.9300 h1         1 KJN       0.063200
     22 H16         20.9480   -20.3720    -0.7720 hx         1 KJN       0.111700
     23 H27         20.5440   -19.1110     1.4380 hc         1 KJN       0.093700
     24 H26         18.9690   -18.6710     0.8230 hc         1 KJN       0.093700
     25 H30         16.7540   -19.9780     2.1430 ha         1 KJN       0.123500
     26 H31         15.9620   -19.7150     4.4590 ha         1 KJN       0.146000
     27 H32         17.4650   -20.2420     6.3550 ha         1 KJN       0.149000
     28 H33         19.7680   -21.0330     5.9090 ha         1 KJN       0.146000
     29 H34         20.5590   -21.2930     3.5890 ha         1 KJN       0.123500
     30 H18         18.5650   -20.4120    -1.3850 hn         1 KJN       0.463800
     31 H17         18.6760   -18.7970    -1.7350 hn         1 KJN       0.463800
     32 H19         19.5730   -19.8950    -2.5670 hn         1 KJN       0.463800
     33 H29         18.3800   -21.1360     0.6610 hc         1 KJN       0.043700
     34 H28         19.9930   -21.5310     1.2280 hc         1 KJN       0.043700
@<TRIPOS>BOND
     1     1    11 1   
     2     1    16 1   
     3     1    17 1   
     4     1    18 1   
     5     2    11 1   
     6     2    19 1   
     7     2    20 1   
     8     2    21 1   
     9     3     4 1   
    10     3    12 1   
    11     3    14 1   
    12     3    22 1   
    13     4    15 1   
    14     4    23 1   
    15     4    24 1   
    16     5     6 ar  
    17     5    10 ar  
    18     5    15 1   
    19     6     7 ar  
    20     6    25 1   
    21     7     8 ar  
    22     7    26 1   
    23     8     9 ar  
    24     8    27 1   
    25     9    10 ar  
    26     9    28 1   
    27    10    29 1   
    28    11    12 1   
    29    12    13 2   
    30    14    30 1   
    31    14    31 1   
    32    14    32 1   
    33    15    33 1   
    34    15    34 1   
@<TRIPOS>SUBSTRUCTURE
     1 KJN         1 TEMP              0 ****  ****    0 ROOT
