@<TRIPOS>MOLECULE
KJN
   34    34     1     0     0
SMALL
No Charge or Current Charge


@<TRIPOS>ATOM
      1 C1          23.0520   -16.6580    -0.8070 c3         1 KJN       0.074300
      2 C3          23.1070   -19.0350     0.0700 c3         1 KJN       0.074300
      3 C6          20.2670   -19.4500    -0.6970 c3         1 KJN       0.022300
      4 C8          19.6770   -19.3790     0.7320 c3         1 KJN      -0.109400
      5 C10         18.6810   -20.6300     2.7030 ca         1 KJN      -0.117300
      6 C11         17.3580   -20.2440     2.9970 ca         1 KJN      -0.101000
      7 C12         16.9290   -20.1440     4.3320 ca         1 KJN      -0.097000
      8 C13         17.8210   -20.4280     5.3810 ca         1 KJN      -0.084000
      9 C14         19.1420   -20.8110     5.0930 ca         1 KJN      -0.097000
     10 C15         19.5710   -20.9110     3.7580 ca         1 KJN      -0.101000
     11 N2          22.3340   -17.9280    -0.5440 n          1 KJN      -0.365800
     12 C4          21.0340   -18.1290    -1.0640 c          1 KJN       0.576100
     13 O5          20.5060   -17.2870    -1.7830 o          1 KJN      -0.601100
     14 N7          19.1750   -19.7880    -1.7140 nz         1 KJN      -0.968000
     15 C9          19.1470   -20.7310     1.2570 c3         1 KJN      -0.026100
     16 H22         23.8990   -16.5450    -0.1180 h1         1 KJN       0.063200
     17 H20         23.4260   -16.6510    -1.8390 h1         1 KJN       0.063200
     18 H21         22.3750   -15.8060    -0.6650 h1         1 KJN       0.063200
     19 H23         22.6870   -19.2940     1.0490 h1         1 KJN       0.063200
     20 H25         23.0860   -19.9180    -0.5820 h1         1 KJN       0.063200
     21 H24         24.1550   -18.7400     0.2110 h1         1 KJN       0.063200
     22 H16         21.0150   -20.2480    -0.7240 hx         1 KJN       0.111700
     23 H27         20.4460   -19.0190     1.4270 hc         1 KJN       0.093700
     24 H26         18.8720   -18.6340     0.7600 hc         1 KJN       0.093700
     25 H30         16.6620   -20.0200     2.1920 ha         1 KJN       0.105500
     26 H31         15.9060   -19.8460     4.5540 ha         1 KJN       0.128000
     27 H32         17.4880   -20.3510     6.4140 ha         1 KJN       0.131000
     28 H33         19.8330   -21.0300     5.9040 ha         1 KJN       0.128000
     29 H34         20.5960   -21.2060     3.5450 ha         1 KJN       0.105500
     30 H18         18.6800   -20.6740    -1.5310 hn         1 KJN       0.519000
     31 H17         18.4460   -19.0590    -1.7750 hn         1 KJN       0.519000
     32 H19         19.5340   -19.8690    -2.6800 hn         1 KJN       0.519000
     33 H29         18.3210   -21.0750     0.6240 hc         1 KJN       0.043700
     34 H28         19.9380   -21.4870     1.1690 hc         1 KJN       0.043700
@<TRIPOS>BOND
     1     1    11 1   
     2     1    16 1   
     3     1    17 1   
     4     1    18 1   
     5     2    11 1   
     6     2    19 1   
     7     2    20 1   
     8     2    21 1   
     9     3     4 1   
    10     3    12 1   
    11     3    14 1   
    12     3    22 1   
    13     4    15 1   
    14     4    23 1   
    15     4    24 1   
    16     5     6 ar  
    17     5    10 ar  
    18     5    15 1   
    19     6     7 ar  
    20     6    25 1   
    21     7     8 ar  
    22     7    26 1   
    23     8     9 ar  
    24     8    27 1   
    25     9    10 ar  
    26     9    28 1   
    27    10    29 1   
    28    11    12 1   
    29    12    13 2   
    30    14    30 1   
    31    14    31 1   
    32    14    32 1   
    33    15    33 1   
    34    15    34 1   
@<TRIPOS>SUBSTRUCTURE
     1 KJN         1 TEMP              0 ****  ****    0 ROOT
