@<TRIPOS>MOLECULE
KJO
   29    30     1     0     0
SMALL
abcg2


@<TRIPOS>ATOM
      1 N1           7.4090     1.1690    17.5990 nb         1 KJO      -0.662000
      2 C4          12.3890     0.6430    22.0760 ca         1 KJO      -0.147500
      3 C5          13.7330     0.6570    22.4350 ca         1 KJO      -0.083000
      4 C6          14.4360    -0.5250    22.6400 ca         1 KJO      -0.135000
      5 C7          13.7770    -1.7420    22.4830 ca         1 KJO      -0.083000
      6 C8          12.4380    -1.7720    22.1250 ca         1 KJO      -0.147500
      7 C10          5.9670     0.5830    19.9070 ca         1 KJO      -0.058000
      8 C13          8.0100     0.6780    18.6820 ca         1 KJO       0.362900
      9 O            9.7520     1.4610    21.1290 o          1 KJO      -0.568100
     10 C2           9.4810     0.2690    21.2360 c          1 KJO       0.602300
     11 C9           7.3430     0.3560    19.8690 ca         1 KJO      -0.099800
     12 C12          6.0880     1.3710    17.6560 ca         1 KJO       0.341900
     13 C11          5.3300     1.0930    18.7860 ca         1 KJO      -0.166000
     14 C            7.5260    -1.0990    21.8620 c2         1 KJO      -0.277000
     15 N           10.3750    -0.6990    21.5710 ns         1 KJO      -0.144000
     16 C3          11.7320    -0.5800    21.9190 ca         1 KJO      -0.024000
     17 H1          11.8550     1.5650    21.9170 ha         1 KJO       0.128500
     18 H2          14.2330     1.6110    22.5560 ha         1 KJO       0.114500
     19 H3          15.4820    -0.5000    22.9160 ha         1 KJO       0.116000
     20 H4          14.3060    -2.6730    22.6390 ha         1 KJO       0.114500
     21 H5          11.9280    -2.7200    22.0040 ha         1 KJO       0.128500
     22 H6           5.4040     0.3780    20.8090 ha         1 KJO       0.118000
     23 H7           9.0810     0.5230    18.6050 h4         1 KJO       0.026100
     24 H8           5.6210     1.7760    16.7650 h4         1 KJO       0.021100
     25 H9           4.2650     1.2830    18.7880 ha         1 KJO       0.125000
     26 H10          8.0720    -1.4810    22.7140 ha         1 KJO       0.176000
     27 H11          6.5070    -1.4440    21.7390 ha         1 KJO       0.176000
     28 H12         10.0240    -1.6450    21.5390 hn         1 KJO       0.152000
     29 C1           8.0760    -0.2280    21.0110 ce         1 KJO      -0.106400
@<TRIPOS>BOND
     1     1     8 ar  
     2     1    12 ar  
     3     2     3 ar  
     4     2    16 ar  
     5     2    17 1   
     6     3     4 ar  
     7     3    18 1   
     8     4     5 ar  
     9     4    19 1   
    10     5     6 ar  
    11     5    20 1   
    12     6    16 ar  
    13     6    21 1   
    14     7    11 ar  
    15     7    13 ar  
    16     7    22 1   
    17     8    11 ar  
    18     8    23 1   
    19     9    10 2   
    20    10    15 1   
    21    10    29 1   
    22    11    29 1   
    23    12    13 ar  
    24    12    24 1   
    25    13    25 1   
    26    14    26 1   
    27    14    27 1   
    28    14    29 2   
    29    15    16 1   
    30    15    28 1   
@<TRIPOS>SUBSTRUCTURE
     1 KJO         1 TEMP              0 ****  ****    0 ROOT
