@<TRIPOS>MOLECULE
KJO
   29    30     1     0     0
SMALL
No Charge or Current Charge


@<TRIPOS>ATOM
      1 N1           6.9200     1.6410    17.6410 nb         1 KJO      -0.662000
      2 C4          12.6280     0.5150    21.6900 ca         1 KJO      -0.147500
      3 C5          13.9360     0.5940    22.2000 ca         1 KJO      -0.083000
      4 C6          14.4330    -0.4220    23.0300 ca         1 KJO      -0.135000
      5 C7          13.6220    -1.5220    23.3520 ca         1 KJO      -0.083000
      6 C8          12.3140    -1.6010    22.8430 ca         1 KJO      -0.147500
      7 C10          6.0090     0.5590    20.0890 ca         1 KJO      -0.058000
      8 C13          7.7350     0.8930    18.4250 ca         1 KJO       0.362900
      9 O            9.9570     1.2050    20.4100 o          1 KJO      -0.568100
     10 C2           9.6340     0.0840    20.7880 c          1 KJO       0.602300
     11 C9           7.3290     0.3300    19.6570 ca         1 KJO      -0.099800
     12 C12          5.6570     1.8570    18.0720 ca         1 KJO       0.341900
     13 C11          5.1650     1.3370    19.2810 ca         1 KJO      -0.166000
     14 C            7.8490    -1.7210    20.9130 c2         1 KJO      -0.277000
     15 N           10.4690    -0.7410    21.5340 ns         1 KJO      -0.144000
     16 C3          11.8010    -0.5860    22.0110 ca         1 KJO      -0.024000
     17 H1          12.2810     1.3160    21.0460 ha         1 KJO       0.128500
     18 H2          14.5660     1.4450    21.9480 ha         1 KJO       0.114500
     19 H3          15.4460    -0.3590    23.4230 ha         1 KJO       0.116000
     20 H4          14.0060    -2.3120    23.9940 ha         1 KJO       0.114500
     21 H5          11.6960    -2.4590    23.1000 ha         1 KJO       0.128500
     22 H6           5.6490     0.1490    21.0300 ha         1 KJO       0.118000
     23 H7           8.7420     0.7280    18.0430 h4         1 KJO       0.026100
     24 H8           5.0200     2.4620    17.4280 h4         1 KJO       0.021100
     25 H9           4.1400     1.5380    19.5810 ha         1 KJO       0.125000
     26 H10          8.4610    -2.3890    21.5200 ha         1 KJO       0.176000
     27 H11          6.8580    -2.1020    20.6630 ha         1 KJO       0.176000
     28 H12         10.0530    -1.6270    21.7840 hn         1 KJO       0.152000
     29 C1           8.2640    -0.5010    20.4800 ce         1 KJO      -0.106400
@<TRIPOS>BOND
     1     1     8 ar  
     2     1    12 ar  
     3     2     3 ar  
     4     2    16 ar  
     5     2    17 1   
     6     3     4 ar  
     7     3    18 1   
     8     4     5 ar  
     9     4    19 1   
    10     5     6 ar  
    11     5    20 1   
    12     6    16 ar  
    13     6    21 1   
    14     7    11 ar  
    15     7    13 ar  
    16     7    22 1   
    17     8    11 ar  
    18     8    23 1   
    19     9    10 2   
    20    10    15 1   
    21    10    29 1   
    22    11    29 1   
    23    12    13 ar  
    24    12    24 1   
    25    13    25 1   
    26    14    26 1   
    27    14    27 1   
    28    14    29 2   
    29    15    16 1   
    30    15    28 1   
@<TRIPOS>SUBSTRUCTURE
     1 KJO         1 TEMP              0 ****  ****    0 ROOT
