@<TRIPOS>MOLECULE
KJP
   88    94     1     0     0
SMALL
abcg2


@<TRIPOS>ATOM
      1 C10         -6.5550   -13.2370    93.4160 c3         1 KJP      -0.079400
      2 C13         -5.3600   -14.7690    96.1130 cc         1 KJP      -0.123300
      3 C20         -6.1800   -17.8560    96.5820 c3         1 KJP      -0.107100
      4 C21         -3.3850   -17.6670    90.2150 ca         1 KJP       0.085000
      5 C26         -4.8390   -15.5140    91.1540 ca         1 KJP       0.166100
      6 C28         -4.5150   -17.9100    90.9930 ca         1 KJP      -0.027300
      7 C01         -3.6420   -16.0840    95.4840 ca         1 KJP      -0.006200
      8 C02         -2.6900   -17.1140    95.3220 ca         1 KJP      -0.006000
      9 C03         -1.8460   -16.9640    94.2240 ca         1 KJP       0.156000
     10 C05         -1.8790   -15.8650    93.3510 ca         1 KJP      -0.145000
     11 C06         -2.7960   -14.8590    93.5490 ca         1 KJP      -0.040000
     12 C07         -3.7060   -14.9650    94.6070 ca         1 KJP      -0.119800
     13 C08         -4.8070   -14.1450    95.0120 cd         1 KJP      -0.065400
     14 C09         -5.2930   -12.9470    94.2580 c3         1 KJP      -0.000200
     15 C11         -6.4820   -14.5150    92.6090 c3         1 KJP       0.161600
     16 C14         -6.5430   -14.3830    96.8950 c          1 KJP       0.594200
     17 C16         -5.8640   -16.1650    98.4610 c6         1 KJP       0.100000
     18 C19         -5.2170   -16.9280    97.3180 c6         1 KJP       0.070300
     19 C23         -2.9730   -16.3760    89.8670 ca         1 KJP      -0.027300
     20 C25         -3.7240   -15.3100    90.3420 ca         1 KJP      -0.172000
     21 C27         -5.2420   -16.8120    91.4580 ca         1 KJP      -0.172000
     22 C29         -4.9670   -19.3020    91.3290 c3         1 KJP      -0.046300
     23 C32         -2.9300   -19.5630    96.0430 cc         1 KJP      -0.106300
     24 C33         -3.5370   -20.2130    94.8550 c3         1 KJP      -0.033800
     25 C34         -2.5670   -18.2420    96.2570 cd         1 KJP      -0.166000
     26 C35         -2.0330   -18.2090    97.5680 cd         1 KJP       0.285300
     27 C36         -1.5000   -17.0260    98.3040 c3         1 KJP      -0.126400
     28 C40         -9.2530   -15.2360    98.5190 cc         1 KJP      -0.166100
     29 C41         -7.9540   -14.8940    98.7880 cd         1 KJP      -0.019600
     30 C42         -7.9380   -14.2390   100.0640 ca         1 KJP      -0.114800
     31 C43         -9.2860   -14.2190   100.5130 ca         1 KJP      -0.050200
     32 C44         -9.6380   -13.6550   101.7400 ca         1 KJP      -0.176000
     33 C45         -8.6220   -13.1150   102.5110 ca         1 KJP      -0.049000
     34 C46         -7.2730   -13.1230   102.0940 ca         1 KJP      -0.149600
     35 C47         -6.1920   -12.5260   102.9880 c          1 KJP       0.705600
     36 C50         -6.9380   -13.6830   100.8670 ca         1 KJP      -0.047000
     37 N15         -6.8320   -15.1740    97.9720 n          1 KJP      -0.305000
     38 N18         -4.6440   -15.9310    96.4120 na         1 KJP      -0.075700
     39 N30         -2.6210   -20.2310    97.1790 na         1 KJP       0.110800
     40 N37         -2.0720   -19.4210    98.1200 nc         1 KJP      -0.526800
     41 N38        -10.0640   -14.8240    99.5530 na         1 KJP      -0.105700
     42 O12         -5.4440   -14.3920    91.6250 os         1 KJP      -0.357100
     43 O17         -7.2400   -13.4170    96.5740 o          1 KJP      -0.546000
     44 O48         -6.5600   -12.0300   104.0860 o          1 KJP      -0.724000
     45 O49         -5.0050   -12.5730   102.5680 o          1 KJP      -0.724000
     46 H1          -6.7500   -12.3890    92.7540 hc         1 KJP       0.063700
     47 H2          -7.4080   -13.3320    94.0890 hc         1 KJP       0.063700
     48 H3          -6.5410   -18.6280    97.2630 hc         1 KJP       0.045033
     49 H4          -7.0380   -17.3030    96.1950 hc         1 KJP       0.045033
     50 H5          -5.6750   -18.3400    95.7480 hc         1 KJP       0.045033
     51 H6          -1.8160   -16.6240    88.0670 hc         1 KJP       0.047033
     52 H7          -1.6110   -15.0590    88.8710 hc         1 KJP       0.047033
     53 H8          -0.8560   -16.5170    89.5330 hc         1 KJP       0.047033
     54 H9          -1.1860   -15.8270    92.5230 ha         1 KJP       0.124000
     55 H10         -2.8300   -14.0170    92.8720 ha         1 KJP       0.123000
     56 H11         -4.4930   -12.6020    93.6020 hc         1 KJP       0.059200
     57 H12         -5.5240   -12.1300    94.9420 hc         1 KJP       0.059200
     58 H13         -7.4310   -14.7170    92.1030 h1         1 KJP       0.040200
     59 H14         -6.2600   -15.3540    93.2700 h1         1 KJP       0.040200
     60 H15         -6.4000   -16.8600    99.1030 h1         1 KJP       0.073200
     61 H16         -5.0900   -15.6740    99.0580 h1         1 KJP       0.073200
     62 H17         -4.4050   -17.5120    97.7380 h1         1 KJP       0.088700
     63 H18         -3.4210   -14.2950    90.1180 ha         1 KJP       0.124000
     64 H19         -6.1150   -16.9970    92.0650 ha         1 KJP       0.124000
     65 H20         -4.1680   -19.8740    91.8030 hc         1 KJP       0.047033
     66 H21         -5.8200   -19.2730    92.0050 hc         1 KJP       0.047033
     67 H22         -5.2570   -19.8480    90.4280 hc         1 KJP       0.047033
     68 H23         -2.4230   -21.8530    98.4320 h1         1 KJP       0.052700
     69 H24         -3.8840   -21.8890    97.4210 h1         1 KJP       0.052700
     70 H25         -2.2980   -22.2470    96.7040 h1         1 KJP       0.052700
     71 H26         -2.8610   -20.9510    94.4150 hc         1 KJP       0.052033
     72 H27         -4.4680   -20.7250    95.1090 hc         1 KJP       0.052033
     73 H28         -3.7560   -19.4600    94.1000 hc         1 KJP       0.052033
     74 H29         -1.0110   -17.3400    99.2260 hc         1 KJP       0.055700
     75 H30         -0.7800   -16.4790    97.6930 hc         1 KJP       0.055700
     76 H31         -2.3010   -16.3270    98.5640 hc         1 KJP       0.055700
     77 H32        -11.7530   -15.6360   100.4990 h1         1 KJP       0.037700
     78 H33        -12.0110   -14.0590    99.7240 h1         1 KJP       0.037700
     79 H34        -11.8370   -15.5180    98.7300 h1         1 KJP       0.037700
     80 H35         -9.6680   -15.7400    97.6610 h4         1 KJP       0.198000
     81 H36        -10.6660   -13.6390   102.0790 ha         1 KJP       0.092000
     82 H37         -8.8530   -12.6710   103.4690 ha         1 KJP       0.131000
     83 H38         -5.9040   -13.6860   100.5500 ha         1 KJP       0.133000
     84 CL04        -0.6390   -18.1950    93.8920 cl         1 KJP      -0.228000
     85 C24         -1.7470   -16.1260    89.0370 c3         1 KJP      -0.046300
     86 C31         -2.8220   -21.6410    97.4450 c3         1 KJP       0.076900
     87 C39        -11.4990   -15.0190    99.6350 c3         1 KJP       0.078900
     88 CL22        -2.4360   -19.0370    89.6470 cl         1 KJP      -0.236000
@<TRIPOS>BOND
     1     1    14 1   
     2     1    15 1   
     3     1    46 1   
     4     1    47 1   
     5     2    13 2   
     6     2    16 1   
     7     2    38 1   
     8     3    18 1   
     9     3    48 1   
    10     3    49 1   
    11     3    50 1   
    12     4     6 ar  
    13     4    19 ar  
    14     4    88 1   
    15     5    20 ar  
    16     5    21 ar  
    17     5    42 1   
    18     6    21 ar  
    19     6    22 1   
    20     7     8 ar  
    21     7    12 ar  
    22     7    38 1   
    23     8     9 ar  
    24     8    25 1   
    25     9    10 ar  
    26     9    84 1   
    27    10    11 ar  
    28    10    54 1   
    29    11    12 ar  
    30    11    55 1   
    31    12    13 1   
    32    13    14 1   
    33    14    56 1   
    34    14    57 1   
    35    15    42 1   
    36    15    58 1   
    37    15    59 1   
    38    16    37 1   
    39    16    43 2   
    40    17    18 1   
    41    17    37 1   
    42    17    60 1   
    43    17    61 1   
    44    18    38 1   
    45    18    62 1   
    46    19    20 ar  
    47    19    85 1   
    48    20    63 1   
    49    21    64 1   
    50    22    65 1   
    51    22    66 1   
    52    22    67 1   
    53    23    24 1   
    54    23    25 2   
    55    23    39 1   
    56    24    71 1   
    57    24    72 1   
    58    24    73 1   
    59    25    26 1   
    60    26    27 1   
    61    26    40 2   
    62    27    74 1   
    63    27    75 1   
    64    27    76 1   
    65    28    29 2   
    66    28    41 1   
    67    28    80 1   
    68    29    30 1   
    69    29    37 1   
    70    30    31 ar  
    71    30    36 ar  
    72    31    32 ar  
    73    31    41 1   
    74    32    33 ar  
    75    32    81 1   
    76    33    34 ar  
    77    33    82 1   
    78    34    35 1   
    79    34    36 ar  
    80    35    44 1   
    81    35    45 1   
    82    36    83 1   
    83    39    40 1   
    84    39    86 1   
    85    41    87 1   
    86    51    85 1   
    87    52    85 1   
    88    53    85 1   
    89    68    86 1   
    90    69    86 1   
    91    70    86 1   
    92    77    87 1   
    93    78    87 1   
    94    79    87 1   
@<TRIPOS>SUBSTRUCTURE
     1 KJP         1 TEMP              0 ****  ****    0 ROOT
