@<TRIPOS>MOLECULE
KJP
   88    94     1     0     0
SMALL
No Charge or Current Charge


@<TRIPOS>ATOM
      1 C10         -6.3510   -12.7480    93.2110 c3         1 KJP      -0.079400
      2 C13         -5.0140   -14.1530    95.9330 cc         1 KJP      -0.123300
      3 C20         -5.8570   -17.3110    96.1580 c3         1 KJP      -0.107100
      4 C21         -4.4150   -18.6530    91.3870 ca         1 KJP       0.085000
      5 C26         -5.2370   -15.9800    91.7500 ca         1 KJP       0.166100
      6 C28         -5.5500   -18.3680    92.1820 ca         1 KJP      -0.027300
      7 C01         -3.3100   -15.5300    95.2090 ca         1 KJP      -0.006200
      8 C02         -2.3590   -16.5680    95.0380 ca         1 KJP      -0.006000
      9 C03         -1.5290   -16.5000    93.8840 ca         1 KJP       0.156000
     10 C05         -1.6350   -15.4250    92.9770 ca         1 KJP      -0.145000
     11 C06         -2.5690   -14.3980    93.1900 ca         1 KJP      -0.040000
     12 C07         -3.3950   -14.4890    94.3170 ca         1 KJP      -0.119800
     13 C08         -4.4740   -13.6240    94.7600 cd         1 KJP      -0.065400
     14 C09         -5.0110   -12.4580    93.9500 c3         1 KJP      -0.000200
     15 C11         -6.5970   -14.2270    92.8330 c3         1 KJP       0.161600
     16 C14         -6.2070   -13.6940    96.6890 c          1 KJP       0.594200
     17 C16         -5.6690   -15.6950    98.1590 c6         1 KJP       0.100000
     18 C19         -4.9210   -16.3920    96.9880 c6         1 KJP       0.070300
     19 C23         -3.6940   -17.6040    90.7740 ca         1 KJP      -0.027300
     20 C25         -4.1220   -16.2750    90.9560 ca         1 KJP      -0.172000
     21 C27         -5.9570   -17.0310    92.3570 ca         1 KJP      -0.172000
     22 C29         -6.3340   -19.4860    92.8610 c3         1 KJP      -0.046300
     23 C32         -2.2050   -18.9810    95.8370 cc         1 KJP      -0.106300
     24 C33         -2.6210   -19.7740    94.6260 c3         1 KJP      -0.033800
     25 C34         -2.1710   -17.6280    96.0440 cd         1 KJP      -0.166000
     26 C35         -1.7020   -17.4380    97.3670 cd         1 KJP       0.285300
     27 C36         -1.4040   -16.1240    98.0380 c3         1 KJP      -0.126400
     28 C40         -8.9730   -13.9840    97.8360 cc         1 KJP      -0.166100
     29 C41         -7.7950   -14.4110    98.4370 cd         1 KJP      -0.019600
     30 C42         -8.0350   -14.7510    99.8350 ca         1 KJP      -0.114800
     31 C43         -9.3740   -14.5320   100.0310 ca         1 KJP      -0.050200
     32 C44         -9.9780   -14.7440   101.2770 ca         1 KJP      -0.176000
     33 C45         -9.1680   -15.1850   102.3450 ca         1 KJP      -0.049000
     34 C46         -7.7720   -15.3930   102.1670 ca         1 KJP      -0.149600
     35 C47         -6.9060   -15.8450   103.3290 c          1 KJP       0.705600
     36 C50         -7.1980   -15.1620   100.8890 ca         1 KJP      -0.047000
     37 N15         -6.5750   -14.5670    97.7610 n          1 KJP      -0.305000
     38 N18         -4.3120   -15.3370    96.1630 na         1 KJP      -0.075700
     39 N30         -1.8420   -19.5190    97.0710 na         1 KJP       0.110800
     40 N37         -1.5210   -18.5690    98.0180 nc         1 KJP      -0.526800
     41 N38         -9.9420   -14.0760    98.8490 na         1 KJP      -0.105700
     42 O12         -5.5570   -14.6500    91.9340 os         1 KJP      -0.357100
     43 O17         -6.8210   -12.6670    96.4280 o          1 KJP      -0.546000
     44 O48         -7.4310   -16.0120   104.4210 o          1 KJP      -0.724000
     45 O49         -5.7130   -16.0280   103.1340 o          1 KJP      -0.724000
     46 H1          -6.4100   -12.1280    92.3090 hc         1 KJP       0.063700
     47 H2          -7.1830   -12.4280    93.8480 hc         1 KJP       0.063700
     48 H3          -6.3040   -18.0910    96.7860 hc         1 KJP       0.045033
     49 H4          -6.6730   -16.7410    95.6980 hc         1 KJP       0.045033
     50 H5          -5.3020   -17.8100    95.3550 hc         1 KJP       0.045033
     51 H6          -2.6930   -18.5280    89.0800 hc         1 KJP       0.047033
     52 H7          -2.0120   -16.9630    89.5380 hc         1 KJP       0.047033
     53 H8          -1.6820   -18.3860    90.5310 hc         1 KJP       0.047033
     54 H9          -0.9780   -15.3840    92.1120 ha         1 KJP       0.124000
     55 H10         -2.6540   -13.5750    92.4850 ha         1 KJP       0.123000
     56 H11         -4.2700   -12.1570    93.2010 hc         1 KJP       0.059200
     57 H12         -5.1370   -11.5770    94.5910 hc         1 KJP       0.059200
     58 H13         -7.5820   -14.3380    92.3620 h1         1 KJP       0.040200
     59 H14         -6.5920   -14.8210    93.7550 h1         1 KJP       0.040200
     60 H15         -6.2400   -16.4590    98.7050 h1         1 KJP       0.073200
     61 H16         -4.9140   -15.2930    98.8490 h1         1 KJP       0.073200
     62 H17         -4.1520   -17.0240    97.4370 h1         1 KJP       0.088700
     63 H18         -3.5720   -15.4580    90.4970 ha         1 KJP       0.124000
     64 H19         -6.8300   -16.8280    92.9680 ha         1 KJP       0.124000
     65 H20         -5.6960   -20.0520    93.5500 hc         1 KJP       0.047033
     66 H21         -7.1780   -19.0970    93.4430 hc         1 KJP       0.047033
     67 H22         -6.7410   -20.1870    92.1230 hc         1 KJP       0.047033
     68 H23         -1.3610   -21.0780    98.4200 h1         1 KJP       0.052700
     69 H24         -2.7690   -21.3880    97.3620 h1         1 KJP       0.052700
     70 H25         -1.1120   -21.4590    96.6910 h1         1 KJP       0.052700
     71 H26         -1.7750   -20.3340    94.2120 hc         1 KJP       0.052033
     72 H27         -3.4130   -20.4900    94.8780 hc         1 KJP       0.052033
     73 H28         -3.0080   -19.1160    93.8410 hc         1 KJP       0.052033
     74 H29         -0.5590   -16.2150    98.7310 hc         1 KJP       0.055700
     75 H30         -1.1460   -15.3540    97.3020 hc         1 KJP       0.055700
     76 H31         -2.2700   -15.7710    98.6070 hc         1 KJP       0.055700
     77 H32        -11.9680   -14.6500    98.9710 h1         1 KJP       0.037700
     78 H33        -11.6280   -12.9570    99.4460 h1         1 KJP       0.037700
     79 H34        -11.6040   -13.4250    97.7200 h1         1 KJP       0.037700
     80 H35         -9.1960   -13.6720    96.8230 h4         1 KJP       0.198000
     81 H36        -11.0410   -14.5720   101.4270 ha         1 KJP       0.092000
     82 H37         -9.6280   -15.3530   103.3160 ha         1 KJP       0.131000
     83 H38         -6.1300   -15.2850   100.7420 ha         1 KJP       0.133000
     84 Cl04        -0.2470   -17.6780    93.5890 cl         1 KJP      -0.228000
     85 C24         -2.4540   -17.8850    89.9340 c3         1 KJP      -0.046300
     86 C31         -1.7660   -20.9490    97.4090 c3         1 KJP       0.076900
     87 C39        -11.3740   -13.7570    98.7400 c3         1 KJP       0.078900
     88 Cl22        -3.8930   -20.3310    91.1630 cl         1 KJP      -0.236000
@<TRIPOS>BOND
     1     1    14 1   
     2     1    15 1   
     3     1    46 1   
     4     1    47 1   
     5     2    13 2   
     6     2    16 1   
     7     2    38 1   
     8     3    18 1   
     9     3    48 1   
    10     3    49 1   
    11     3    50 1   
    12     4     6 ar  
    13     4    19 ar  
    14     4    88 1   
    15     5    20 ar  
    16     5    21 ar  
    17     5    42 1   
    18     6    21 ar  
    19     6    22 1   
    20     7     8 ar  
    21     7    12 ar  
    22     7    38 1   
    23     8     9 ar  
    24     8    25 1   
    25     9    10 ar  
    26     9    84 1   
    27    10    11 ar  
    28    10    54 1   
    29    11    12 ar  
    30    11    55 1   
    31    12    13 1   
    32    13    14 1   
    33    14    56 1   
    34    14    57 1   
    35    15    42 1   
    36    15    58 1   
    37    15    59 1   
    38    16    37 1   
    39    16    43 2   
    40    17    18 1   
    41    17    37 1   
    42    17    60 1   
    43    17    61 1   
    44    18    38 1   
    45    18    62 1   
    46    19    20 ar  
    47    19    85 1   
    48    20    63 1   
    49    21    64 1   
    50    22    65 1   
    51    22    66 1   
    52    22    67 1   
    53    23    24 1   
    54    23    25 2   
    55    23    39 1   
    56    24    71 1   
    57    24    72 1   
    58    24    73 1   
    59    25    26 1   
    60    26    27 1   
    61    26    40 2   
    62    27    74 1   
    63    27    75 1   
    64    27    76 1   
    65    28    29 2   
    66    28    41 1   
    67    28    80 1   
    68    29    30 1   
    69    29    37 1   
    70    30    31 ar  
    71    30    36 ar  
    72    31    32 ar  
    73    31    41 1   
    74    32    33 ar  
    75    32    81 1   
    76    33    34 ar  
    77    33    82 1   
    78    34    35 1   
    79    34    36 ar  
    80    35    44 1   
    81    35    45 1   
    82    36    83 1   
    83    39    40 1   
    84    39    86 1   
    85    41    87 1   
    86    51    85 1   
    87    52    85 1   
    88    53    85 1   
    89    68    86 1   
    90    69    86 1   
    91    70    86 1   
    92    77    87 1   
    93    78    87 1   
    94    79    87 1   
@<TRIPOS>SUBSTRUCTURE
     1 KJP         1 TEMP              0 ****  ****    0 ROOT
