@<TRIPOS>MOLECULE
KJQ
   52    56     1     0     0
SMALL
bcc


@<TRIPOS>ATOM
      1 C3           0.5680    -1.4150     0.1180 ca         1 KJQ      -0.410400
      2 C2           1.3990    -0.2520    -0.0130 cc         1 KJQ      -0.038400
      3 N8          -1.1620    -3.0150     0.2590 nb         1 KJQ      -0.826000
      4 C9          -0.2170    -3.9300     0.4410 ca         1 KJQ       0.710900
      5 C6          -0.8070    -1.7350     0.1180 ca         1 KJQ       0.767200
      6 C4           1.4200    -2.4800     0.3370 ca         1 KJQ       0.620600
      7 C1           2.6750    -0.7050     0.1350 cd         1 KJQ       0.087900
      8 C23         -5.1120    -0.2250     1.0990 ca         1 KJQ      -0.109000
      9 C25         -5.9310     0.7850     1.5870 ca         1 KJQ      -0.131000
     10 C27         -5.6470     2.1110     1.2940 ca         1 KJQ      -0.121000
     11 C26         -4.5440     2.4170     0.5070 ca         1 KJQ      -0.131000
     12 C24         -3.7340     1.4050     0.0110 ca         1 KJQ      -0.109000
     13 C22         -4.0060     0.0690     0.3070 ca         1 KJQ      -0.094300
     14 CA          -3.1600    -1.0650    -0.2250 c3         1 KJQ       0.287800
     15 C           -3.4340    -1.3520    -1.6990 c3         1 KJQ       0.115400
     16 O           -3.0340    -0.2430    -2.4640 oh         1 KJQ      -0.603800
     17 N           -1.7540    -0.7940     0.0050 nu         1 KJQ      -0.845900
     18 N7           1.0930    -3.7470     0.5050 nb         1 KJQ      -0.730000
     19 O5           2.6880    -2.0570     0.3550 os         1 KJQ      -0.271400
     20 C10          3.9740    -0.0490     0.1000 ca         1 KJQ      -0.038800
     21 C14          5.0500    -0.5630     0.8300 ca         1 KJQ      -0.099000
     22 C17          6.2830     0.0690     0.8000 ca         1 KJQ      -0.134000
     23 C21          6.4650     1.2180     0.0420 ca         1 KJQ      -0.115000
     24 C18          5.4030     1.7300    -0.6930 ca         1 KJQ      -0.134000
     25 C15          4.1690     1.1010    -0.6700 ca         1 KJQ      -0.099000
     26 C11          0.9410     1.1280    -0.2310 ca         1 KJQ      -0.035800
     27 C13          1.2150     2.1260     0.7040 ca         1 KJQ      -0.119000
     28 C16          0.7490     3.4170     0.5090 ca         1 KJQ      -0.129500
     29 C20         -0.0030     3.7260    -0.6180 ca         1 KJQ      -0.126000
     30 C19         -0.2800     2.7400    -1.5550 ca         1 KJQ      -0.129500
     31 C12          0.1930     1.4480    -1.3650 ca         1 KJQ      -0.119000
     32 H1          -0.5650    -4.9510     0.5530 h5         1 KJQ       0.049100
     33 H2          -5.3380    -1.2570     1.3390 ha         1 KJQ       0.134500
     34 H3          -6.7870     0.5340     2.2000 ha         1 KJQ       0.131500
     35 H4          -6.2810     2.9020     1.6750 ha         1 KJQ       0.131000
     36 H5          -4.3150     3.4480     0.2710 ha         1 KJQ       0.131500
     37 H6          -2.8930     1.6760    -0.6150 ha         1 KJQ       0.134500
     38 H7          -3.4190    -1.9720     0.3230 h1         1 KJQ       0.091700
     39 H8          -2.8870    -2.2590    -1.9800 h1         1 KJQ       0.035700
     40 H9          -4.5040    -1.5730    -1.8130 h1         1 KJQ       0.035700
     41 H10         -3.0840    -0.4820    -3.3930 ho         1 KJQ       0.407000
     42 H11         -1.4340     0.1460    -0.1600 hn         1 KJQ       0.455800
     43 H12          4.9260    -1.4510     1.4370 ha         1 KJQ       0.144000
     44 H13          7.1040    -0.3370     1.3770 ha         1 KJQ       0.133500
     45 H14          7.4290     1.7100     0.0200 ha         1 KJQ       0.132000
     46 H15          5.5360     2.6180    -1.2960 ha         1 KJQ       0.133500
     47 H16          3.3600     1.5000    -1.2670 ha         1 KJQ       0.144000
     48 H17          1.7900     1.8840     1.5890 ha         1 KJQ       0.141500
     49 H18          0.9660     4.1820     1.2420 ha         1 KJQ       0.135000
     50 H19         -0.3730     4.7330    -0.7640 ha         1 KJQ       0.132000
     51 H20         -0.8620     2.9740    -2.4360 ha         1 KJQ       0.135000
     52 H21         -0.0180     0.6850    -2.1060 ha         1 KJQ       0.141500
@<TRIPOS>BOND
     1     1     2 1   
     2     1     5 ar  
     3     1     6 ar  
     4     2     7 2   
     5     2    26 1   
     6     3     4 ar  
     7     3     5 ar  
     8     4    18 ar  
     9     4    32 1   
    10     5    17 1   
    11     6    18 ar  
    12     6    19 1   
    13     7    19 1   
    14     7    20 1   
    15     8     9 ar  
    16     8    13 ar  
    17     8    33 1   
    18     9    10 ar  
    19     9    34 1   
    20    10    11 ar  
    21    10    35 1   
    22    11    12 ar  
    23    11    36 1   
    24    12    13 ar  
    25    12    37 1   
    26    13    14 1   
    27    14    15 1   
    28    14    17 1   
    29    14    38 1   
    30    15    16 1   
    31    15    39 1   
    32    15    40 1   
    33    16    41 1   
    34    17    42 1   
    35    20    21 ar  
    36    20    25 ar  
    37    21    22 ar  
    38    21    43 1   
    39    22    23 ar  
    40    22    44 1   
    41    23    24 ar  
    42    23    45 1   
    43    24    25 ar  
    44    24    46 1   
    45    25    47 1   
    46    26    27 ar  
    47    26    31 ar  
    48    27    28 ar  
    49    27    48 1   
    50    28    29 ar  
    51    28    49 1   
    52    29    30 ar  
    53    29    50 1   
    54    30    31 ar  
    55    30    51 1   
    56    31    52 1   
@<TRIPOS>SUBSTRUCTURE
     1 KJQ         1 TEMP              0 ****  ****    0 ROOT
