@<TRIPOS>MOLECULE
KJQ
   52    56     1     0     0
SMALL
No Charge or Current Charge


@<TRIPOS>ATOM
      1 C3           0.5700    -1.6050     0.2440 ca         1 KJQ      -0.279800
      2 C2           1.3080    -0.3660     0.1310 cc         1 KJQ      -0.038400
      3 N8          -1.1860    -3.1950     0.3990 nb         1 KJQ      -0.300000
      4 C9          -0.2070    -4.1300     0.5210 ca         1 KJQ       0.184900
      5 C6          -0.7880    -1.9120     0.2610 ca         1 KJQ       0.438900
      6 C4           1.4780    -2.6230     0.3850 ca         1 KJQ       0.292300
      7 C1           2.6510    -0.7300     0.2250 cd         1 KJQ       0.087900
      8 C23         -4.9670     0.0790     1.1600 ca         1 KJQ      -0.091000
      9 C25         -5.6830     1.2240     1.5530 ca         1 KJQ      -0.113000
     10 C27         -5.3780     2.4740     0.9900 ca         1 KJQ      -0.103000
     11 C26         -4.3570     2.5780     0.0320 ca         1 KJQ      -0.113000
     12 C24         -3.6430     1.4330    -0.3640 ca         1 KJQ      -0.091000
     13 C22         -3.9410     0.1710     0.1940 ca         1 KJQ      -0.094300
     14 CA          -3.1630    -1.0880    -0.2100 c3         1 KJQ       0.287800
     15 C           -3.3510    -1.4840    -1.7160 c3         1 KJQ       0.138600
     16 O           -2.6800    -0.5910    -2.6340 oh         1 KJQ      -0.666000
     17 N           -1.7440    -0.9210     0.1530 nu         1 KJQ      -0.901100
     18 N7           1.1320    -3.9120     0.5270 nb         1 KJQ      -0.204000
     19 O5           2.7370    -2.0980     0.3740 os         1 KJQ      -0.271400
     20 C10          3.9240     0.0210     0.0880 ca         1 KJQ      -0.038800
     21 C14          5.1500    -0.6210     0.3860 ca         1 KJQ      -0.081000
     22 C17          6.3720     0.0630     0.2670 ca         1 KJQ      -0.116000
     23 C21          6.3940     1.3990    -0.1570 ca         1 KJQ      -0.097000
     24 C18          5.1890     2.0480    -0.4670 ca         1 KJQ      -0.116000
     25 C15          3.9660     1.3660    -0.3480 ca         1 KJQ      -0.081000
     26 C11          0.7970     0.9880    -0.0260 ca         1 KJQ      -0.035800
     27 C13          0.8990     1.9110     1.0320 ca         1 KJQ      -0.101000
     28 C16          0.3910     3.2140     0.8850 ca         1 KJQ      -0.111500
     29 C20         -0.2220     3.5970    -0.3210 ca         1 KJQ      -0.108000
     30 C19         -0.3270     2.6770    -1.3770 ca         1 KJQ      -0.111500
     31 C12          0.1750     1.3730    -1.2270 ca         1 KJQ      -0.101000
     32 H1          -0.5310    -5.1630     0.6320 h5         1 KJQ       0.049100
     33 H2          -5.2120    -0.8800     1.6100 ha         1 KJQ       0.116500
     34 H3          -6.4720     1.1420     2.2980 ha         1 KJQ       0.113500
     35 H4          -5.9310     3.3590     1.2960 ha         1 KJQ       0.113000
     36 H5          -4.1170     3.5440    -0.4050 ha         1 KJQ       0.113500
     37 H6          -2.8560     1.5330    -1.1060 ha         1 KJQ       0.116500
     38 H7          -3.5770    -1.9200     0.3780 h1         1 KJQ       0.091700
     39 H8          -2.9680    -2.5040    -1.8510 h1         1 KJQ       0.035700
     40 H9          -4.4270    -1.5140    -1.9350 h1         1 KJQ       0.035700
     41 H10         -2.8270    -0.9450    -3.5380 ho         1 KJQ       0.446000
     42 H11         -1.3480    -0.0050    -0.0440 hn         1 KJQ       0.511000
     43 H12          5.1620    -1.6550     0.7210 ha         1 KJQ       0.126000
     44 H13          7.3040    -0.4460     0.5060 ha         1 KJQ       0.115500
     45 H14          7.3400     1.9280    -0.2500 ha         1 KJQ       0.114000
     46 H15          5.2020     3.0820    -0.8050 ha         1 KJQ       0.115500
     47 H16          3.0610     1.8960    -0.6200 ha         1 KJQ       0.126000
     48 H17          1.3710     1.6170     1.9660 ha         1 KJQ       0.123500
     49 H18          0.4710     3.9250     1.7040 ha         1 KJQ       0.117000
     50 H19         -0.6150     4.6050    -0.4350 ha         1 KJQ       0.114000
     51 H20         -0.8030     2.9730    -2.3100 ha         1 KJQ       0.117000
     52 H21          0.0880     0.6620    -2.0460 ha         1 KJQ       0.123500
@<TRIPOS>BOND
     1     1     2 1   
     2     1     5 ar  
     3     1     6 ar  
     4     2     7 2   
     5     2    26 1   
     6     3     4 ar  
     7     3     5 ar  
     8     4    18 ar  
     9     4    32 1   
    10     5    17 1   
    11     6    18 ar  
    12     6    19 1   
    13     7    19 1   
    14     7    20 1   
    15     8     9 ar  
    16     8    13 ar  
    17     8    33 1   
    18     9    10 ar  
    19     9    34 1   
    20    10    11 ar  
    21    10    35 1   
    22    11    12 ar  
    23    11    36 1   
    24    12    13 ar  
    25    12    37 1   
    26    13    14 1   
    27    14    15 1   
    28    14    17 1   
    29    14    38 1   
    30    15    16 1   
    31    15    39 1   
    32    15    40 1   
    33    16    41 1   
    34    17    42 1   
    35    20    21 ar  
    36    20    25 ar  
    37    21    22 ar  
    38    21    43 1   
    39    22    23 ar  
    40    22    44 1   
    41    23    24 ar  
    42    23    45 1   
    43    24    25 ar  
    44    24    46 1   
    45    25    47 1   
    46    26    27 ar  
    47    26    31 ar  
    48    27    28 ar  
    49    27    48 1   
    50    28    29 ar  
    51    28    49 1   
    52    29    30 ar  
    53    29    50 1   
    54    30    31 ar  
    55    30    51 1   
    56    31    52 1   
@<TRIPOS>SUBSTRUCTURE
     1 KJQ         1 TEMP              0 ****  ****    0 ROOT
