@<TRIPOS>MOLECULE
KJR
   59    63     1     0     0
SMALL
No Charge or Current Charge


@<TRIPOS>ATOM
      1 C24         49.4630    22.9250     6.8580 c3         1 KJR      -0.178100
      2 C23         48.9700    22.9040     5.4140 c          1 KJR       0.602100
      3 O25         47.8320    23.2560     5.1250 o          1 KJR      -0.581100
      4 N22         49.9190    22.4660     4.5000 ns         1 KJR      -0.153000
      5 C20         49.8810    22.2860     3.0900 ca         1 KJR      -0.026000
      6 C21         51.0730    21.8920     2.4540 ca         1 KJR      -0.181000
      7 C19         48.7200    22.4760     2.3080 ca         1 KJR      -0.129000
      8 C18         48.7630    22.2820     0.9160 ca         1 KJR      -0.083000
      9 C17         49.9610    21.8990     0.2940 ca         1 KJR      -0.120000
     10 C16         51.1200    21.6970     1.0630 ca         1 KJR       0.000200
     11 C15         52.3780    21.3490     0.4150 cc         1 KJR      -0.044400
     12 C1          53.5810    22.1430     0.2950 ca         1 KJR      -0.277800
     13 C14         52.6100    20.2190    -0.3680 cd         1 KJR       0.099900
     14 C26         51.8360    18.9780    -0.6140 ca         1 KJR      -0.043800
     15 C27         50.6840    18.6510     0.1380 ca         1 KJR      -0.080000
     16 C28         49.9700    17.4670    -0.1170 ca         1 KJR      -0.116000
     17 C29         50.3960    16.5870    -1.1230 ca         1 KJR      -0.095000
     18 C30         51.5440    16.8910    -1.8700 ca         1 KJR      -0.116000
     19 C31         52.2600    18.0740    -1.6150 ca         1 KJR      -0.080000
     20 O13         53.8750    20.2970    -0.9120 os         1 KJR      -0.285400
     21 C2          54.4540    21.4680    -0.5190 ca         1 KJR       0.297300
     22 N3          55.6560    21.9470    -0.8750 nb         1 KJR      -0.200000
     23 C4          55.9420    23.1690    -0.3590 ca         1 KJR       0.181900
     24 N5          55.1470    23.9220     0.4480 nb         1 KJR      -0.277000
     25 C6          53.9510    23.3950     0.7790 ca         1 KJR       0.440900
     26 N           53.0960    24.1220     1.5830 nu         1 KJR      -0.929100
     27 CA          52.8370    25.5630     1.4420 c3         1 KJR       0.291800
     28 C           52.1970    26.1380     2.7450 c3         1 KJR       0.150600
     29 O           51.9970    27.5620     2.6580 oh         1 KJR      -0.650000
     30 C7          51.9760    25.7710     0.1910 ca         1 KJR      -0.091300
     31 C8          50.6210    25.3720     0.1650 ca         1 KJR      -0.087000
     32 C9          49.8530    25.5380    -1.0000 ca         1 KJR      -0.112500
     33 C10         50.4290    26.1020    -2.1500 ca         1 KJR      -0.104000
     34 C11         51.7780    26.4960    -2.1350 ca         1 KJR      -0.112500
     35 C12         52.5480    26.3280    -0.9710 ca         1 KJR      -0.087000
     36 H1          48.7000    23.2760     7.5610 hc         1 KJR       0.066033
     37 H2          49.8290    21.9260     7.1240 hc         1 KJR       0.066033
     38 H3          50.3750    23.5290     6.9150 hc         1 KJR       0.066033
     39 H4          50.8090    22.2240     4.9160 hn         1 KJR       0.149000
     40 H5          51.9730    21.7340     3.0450 ha         1 KJR       0.119000
     41 H6          47.7760    22.7720     2.7550 ha         1 KJR       0.153000
     42 H7          47.8670    22.4340     0.3180 ha         1 KJR       0.122000
     43 H8          49.9930    21.7660    -0.7840 ha         1 KJR       0.129000
     44 H9          50.3400    19.2920     0.9420 ha         1 KJR       0.126500
     45 H10         49.0870    17.2290     0.4720 ha         1 KJR       0.117000
     46 H11         49.8430    15.6710    -1.3190 ha         1 KJR       0.116000
     47 H12         51.8810    16.2100    -2.6490 ha         1 KJR       0.117000
     48 H13         53.1430    18.2880    -2.2120 ha         1 KJR       0.126500
     49 H14         56.9080    23.5940    -0.6250 h5         1 KJR       0.054100
     50 H15         52.2640    23.5750     1.7980 hn         1 KJR       0.505000
     51 H16         53.7900    26.0950     1.3080 h1         1 KJR       0.092700
     52 H17         51.2420    25.6330     2.9400 h1         1 KJR       0.023700
     53 H18         52.8620    25.9110     3.5890 h1         1 KJR       0.023700
     54 H19         51.5930    27.8480     3.5070 ho         1 KJR       0.447000
     55 H20         50.1620    24.9250     1.0420 ha         1 KJR       0.112000
     56 H21         48.8110    25.2260    -1.0110 ha         1 KJR       0.112000
     57 H22         49.8340    26.2300    -3.0510 ha         1 KJR       0.112000
     58 H23         52.2270    26.9270    -3.0260 ha         1 KJR       0.112000
     59 H24         53.5940    26.6280    -0.9750 ha         1 KJR       0.112000
@<TRIPOS>BOND
     1     1     2 1   
     2     1    36 1   
     3     1    37 1   
     4     1    38 1   
     5     2     3 2   
     6     2     4 1   
     7     4     5 1   
     8     4    39 1   
     9     5     6 ar  
    10     5     7 ar  
    11     6    10 ar  
    12     6    40 1   
    13     7     8 ar  
    14     7    41 1   
    15     8     9 ar  
    16     8    42 1   
    17     9    10 ar  
    18     9    43 1   
    19    10    11 1   
    20    11    12 1   
    21    11    13 2   
    22    12    21 ar  
    23    12    25 ar  
    24    13    14 1   
    25    13    20 1   
    26    14    15 ar  
    27    14    19 ar  
    28    15    16 ar  
    29    15    44 1   
    30    16    17 ar  
    31    16    45 1   
    32    17    18 ar  
    33    17    46 1   
    34    18    19 ar  
    35    18    47 1   
    36    19    48 1   
    37    20    21 1   
    38    21    22 ar  
    39    22    23 ar  
    40    23    24 ar  
    41    23    49 1   
    42    24    25 ar  
    43    25    26 1   
    44    26    27 1   
    45    26    50 1   
    46    27    28 1   
    47    27    30 1   
    48    27    51 1   
    49    28    29 1   
    50    28    52 1   
    51    28    53 1   
    52    29    54 1   
    53    30    31 ar  
    54    30    35 ar  
    55    31    32 ar  
    56    31    55 1   
    57    32    33 ar  
    58    32    56 1   
    59    33    34 ar  
    60    33    57 1   
    61    34    35 ar  
    62    34    58 1   
    63    35    59 1   
@<TRIPOS>SUBSTRUCTURE
     1 KJR         1 TEMP              0 ****  ****    0 ROOT
