@<TRIPOS>MOLECULE
KJR
   59    63     1     0     0
SMALL
abcg2


@<TRIPOS>ATOM
      1 C24         49.7180    23.7660     6.5020 c3         1 KJR      -0.178100
      2 C23         49.0870    23.1350     5.2840 c          1 KJR       0.602100
      3 O25         47.8700    23.1120     5.1290 o          1 KJR      -0.581100
      4 N22         49.9750    22.6200     4.3850 ns         1 KJR      -0.153000
      5 C20         49.7400    22.0500     3.1240 ca         1 KJR      -0.026000
      6 C21         50.8700    21.6860     2.3840 ca         1 KJR      -0.181000
      7 C19         48.4700    21.8490     2.5780 ca         1 KJR      -0.129000
      8 C18         48.3580    21.3100     1.2990 ca         1 KJR      -0.083000
      9 C17         49.4790    20.9830     0.5500 ca         1 KJR      -0.120000
     10 C16         50.7520    21.1720     1.0950 ca         1 KJR       0.000200
     11 C15         51.9650    20.9060     0.3010 cc         1 KJR      -0.044400
     12 C1          52.9890    21.8710    -0.0220 ca         1 KJR      -0.277800
     13 C14         52.3330    19.7480    -0.3300 cd         1 KJR       0.099900
     14 C26         51.7720    18.4080    -0.3880 ca         1 KJR      -0.043800
     15 C27         50.9310    17.9340     0.6290 ca         1 KJR      -0.080000
     16 C28         50.3990    16.6550     0.5610 ca         1 KJR      -0.116000
     17 C29         50.6990    15.8220    -0.5140 ca         1 KJR      -0.095000
     18 C30         51.5440    16.2790    -1.5220 ca         1 KJR      -0.116000
     19 C31         52.0770    17.5600    -1.4620 ca         1 KJR      -0.080000
     20 O13         53.5170    19.9370    -1.0370 os         1 KJR      -0.285400
     21 C2          53.9010    21.2200    -0.8390 ca         1 KJR       0.297300
     22 N3          55.0010    21.7230    -1.3810 nb         1 KJR      -0.200000
     23 C4          55.1780    23.0050    -1.0520 ca         1 KJR       0.181900
     24 N5          54.3880    23.7720    -0.2980 nb         1 KJR      -0.277000
     25 C6          53.2700    23.2380     0.2280 ca         1 KJR       0.440900
     26 N           52.4620    24.0100     0.9750 nu         1 KJR      -0.929100
     27 CA          52.6900    25.4150     1.2700 c3         1 KJR       0.291800
     28 C           51.9110    25.7200     2.5520 c3         1 KJR       0.150600
     29 O           52.1820    27.0610     2.9380 oh         1 KJR      -0.650000
     30 C7          52.3010    26.3300     0.1240 ca         1 KJR      -0.091300
     31 C8          51.1120    26.1290    -0.5770 ca         1 KJR      -0.087000
     32 C9          50.7470    26.9880    -1.6070 ca         1 KJR      -0.112500
     33 C10         51.5680    28.0590    -1.9500 ca         1 KJR      -0.104000
     34 C11         52.7560    28.2640    -1.2550 ca         1 KJR      -0.112500
     35 C12         53.1180    27.4010    -0.2260 ca         1 KJR      -0.087000
     36 H1          49.2460    23.3550     7.3940 hc         1 KJR       0.066033
     37 H2          50.7950    23.6170     6.5580 hc         1 KJR       0.066033
     38 H3          49.5100    24.8380     6.4790 hc         1 KJR       0.066033
     39 H4          50.9490    22.7120     4.6310 hn         1 KJR       0.149000
     40 H5          51.8520    21.8220     2.8180 ha         1 KJR       0.119000
     41 H6          47.5930    22.1190     3.1400 ha         1 KJR       0.153000
     42 H7          47.3720    21.1620     0.8780 ha         1 KJR       0.122000
     43 H8          49.3760    20.5900    -0.4520 ha         1 KJR       0.129000
     44 H9          50.7070    18.5620     1.4780 ha         1 KJR       0.126500
     45 H10         49.7540    16.3030     1.3560 ha         1 KJR       0.117000
     46 H11         50.2830    14.8240    -0.5630 ha         1 KJR       0.116000
     47 H12         51.7860    15.6380    -2.3600 ha         1 KJR       0.117000
     48 H13         52.7270    17.9100    -2.2520 ha         1 KJR       0.126500
     49 H14         56.0650    23.4850    -1.4500 h5         1 KJR       0.054100
     50 H15         51.5970    23.6010     1.2910 hn         1 KJR       0.505000
     51 H16         53.7520    25.5530     1.4750 h1         1 KJR       0.092700
     52 H17         50.8400    25.5730     2.3690 h1         1 KJR       0.023700
     53 H18         52.2270    25.0160     3.3290 h1         1 KJR       0.023700
     54 H19         51.6280    27.2740     3.6980 ho         1 KJR       0.447000
     55 H20         50.4720    25.2930    -0.3220 ha         1 KJR       0.112000
     56 H21         49.8220    26.8190    -2.1460 ha         1 KJR       0.112000
     57 H22         51.2850    28.7260    -2.7540 ha         1 KJR       0.112000
     58 H23         53.4040    29.0910    -1.5180 ha         1 KJR       0.112000
     59 H24         54.0480    27.5570     0.3080 ha         1 KJR       0.112000
@<TRIPOS>BOND
     1     1     2 1   
     2     1    36 1   
     3     1    37 1   
     4     1    38 1   
     5     2     3 2   
     6     2     4 1   
     7     4     5 1   
     8     4    39 1   
     9     5     6 ar  
    10     5     7 ar  
    11     6    10 ar  
    12     6    40 1   
    13     7     8 ar  
    14     7    41 1   
    15     8     9 ar  
    16     8    42 1   
    17     9    10 ar  
    18     9    43 1   
    19    10    11 1   
    20    11    12 1   
    21    11    13 2   
    22    12    21 ar  
    23    12    25 ar  
    24    13    14 1   
    25    13    20 1   
    26    14    15 ar  
    27    14    19 ar  
    28    15    16 ar  
    29    15    44 1   
    30    16    17 ar  
    31    16    45 1   
    32    17    18 ar  
    33    17    46 1   
    34    18    19 ar  
    35    18    47 1   
    36    19    48 1   
    37    20    21 1   
    38    21    22 ar  
    39    22    23 ar  
    40    23    24 ar  
    41    23    49 1   
    42    24    25 ar  
    43    25    26 1   
    44    26    27 1   
    45    26    50 1   
    46    27    28 1   
    47    27    30 1   
    48    27    51 1   
    49    28    29 1   
    50    28    52 1   
    51    28    53 1   
    52    29    54 1   
    53    30    31 ar  
    54    30    35 ar  
    55    31    32 ar  
    56    31    55 1   
    57    32    33 ar  
    58    32    56 1   
    59    33    34 ar  
    60    33    57 1   
    61    34    35 ar  
    62    34    58 1   
    63    35    59 1   
@<TRIPOS>SUBSTRUCTURE
     1 KJR         1 TEMP              0 ****  ****    0 ROOT
