@<TRIPOS>MOLECULE
KJS
   72    76     1     0     0
SMALL
bcc


@<TRIPOS>ATOM
      1 C4           4.8910     3.0080    -0.6490 ca         1 KJS      -0.190000
      2 C5           3.5370     2.8560    -0.4160 ca         1 KJS      -0.088000
      3 C6           3.0490     1.8240     0.3880 ca         1 KJS      -0.126300
      4 N1          -0.9870    -0.3200     0.2870 na         1 KJS      -0.149300
      5 C7           1.5750     1.6430     0.6140 c3         1 KJS      -0.022100
      6 C8           0.8740     1.0750    -0.6320 c3         1 KJS      -0.096700
      7 N2           0.7210    -3.6150    -0.0790 n3         1 KJS      -0.716600
      8 C9          -0.5670     0.7930    -0.3860 cc         1 KJS       0.420800
      9 C10         -2.6890     0.9590    -0.2800 ca         1 KJS       0.070400
     10 C11         -4.0210     1.3470    -0.3820 ca         1 KJS      -0.061000
     11 C12         -5.0000     0.5180     0.1550 ca         1 KJS      -0.025000
     12 N3          -8.6280     0.8140    -0.2920 nc         1 KJS      -0.369300
     13 C13         -4.6350    -0.6890     0.7840 ca         1 KJS      -0.103000
     14 C14         -3.3170    -1.0940     0.8900 ca         1 KJS      -0.132000
     15 C15         -2.3550    -0.2490     0.3500 ca         1 KJS      -0.080200
     16 C25         -7.5300     0.1160    -0.3220 cd         1 KJS       0.355600
     17 O2          -8.2790     2.0640     0.1290 os         1 KJS      -0.117100
     18 C23         -6.9630     2.1200     0.3480 cc         1 KJS       0.308000
     19 C24         -6.3950     3.4040     0.8210 c3         1 KJS      -0.138400
     20 C22         -6.4120     0.9060     0.0790 cd         1 KJS      -0.304600
     21 N           -1.5500     1.5820    -0.7280 nd         1 KJS      -0.573100
     22 C17         -0.1730    -2.5280    -0.4140 c3         1 KJS       0.142800
     23 C21          0.4110    -4.8140    -0.8420 c6         1 KJS       0.124300
     24 C20          1.3430    -5.9430    -0.4470 c6         1 KJS       0.129900
     25 O1           2.6960    -5.5890    -0.6320 os         1 KJS      -0.399600
     26 C19          3.0110    -4.4310     0.1070 c6         1 KJS       0.129900
     27 C18          2.1190    -3.2650    -0.2750 c6         1 KJS       0.124300
     28 C27          3.9730     0.9510     0.9440 ca         1 KJS      -0.088000
     29 C28          5.3400     1.0870     0.7250 ca         1 KJS      -0.190000
     30 C3           5.8090     2.1240    -0.0760 ca         1 KJS       0.150100
     31 O            7.1090     2.3520    -0.3480 os         1 KJS      -0.324900
     32 C2           8.0910     1.5290     0.2630 c3         1 KJS       0.140400
     33 C1           9.4590     2.0040    -0.1770 c3         1 KJS      -0.081400
     34 C           10.5600     1.1980     0.4990 c3         1 KJS      -0.090100
     35 H1           5.2500     3.8190    -1.2710 ha         1 KJS       0.141000
     36 H2           2.8470     3.5560    -0.8730 ha         1 KJS       0.129500
     37 H3           1.4200     0.9780     1.4670 hc         1 KJS       0.054200
     38 H4           1.1050     2.5940     0.8760 hc         1 KJS       0.054200
     39 H5           0.9380     1.7940    -1.4480 hc         1 KJS       0.067200
     40 H6           1.3910     0.1720    -0.9670 hc         1 KJS       0.067200
     41 H8          -4.2860     2.2650    -0.8900 ha         1 KJS       0.147000
     42 H9          -5.4060    -1.3160     1.2120 ha         1 KJS       0.133000
     43 H10         -3.0600    -2.0260     1.3760 ha         1 KJS       0.138000
     44 H11         -7.3910    -1.9770     0.0920 hc         1 KJS       0.056033
     45 H12         -8.5010    -1.5600    -1.2090 hc         1 KJS       0.056033
     46 H13         -6.7540    -1.5020    -1.4760 hc         1 KJS       0.056033
     47 H14         -7.1480     4.0020     1.3330 hc         1 KJS       0.064367
     48 H15         -5.5720     3.2230     1.5100 hc         1 KJS       0.064367
     49 H16         -6.0060     3.9970    -0.0090 hc         1 KJS       0.064367
     50 H17          0.8240    -1.1040     0.8910 h1         1 KJS       0.068200
     51 H18         -0.5730    -1.8670     1.6050 h1         1 KJS       0.068200
     52 H19          0.0790    -2.0700    -1.3850 h1         1 KJS       0.046200
     53 H20         -1.1840    -2.9300    -0.5140 h1         1 KJS       0.046200
     54 H21         -0.6170    -5.1210    -0.6330 h1         1 KJS       0.042950
     55 H22          0.4860    -4.6380    -1.9280 h1         1 KJS       0.042950
     56 H23          1.1580    -6.2160     0.6020 h1         1 KJS       0.052200
     57 H24          1.1460    -6.8220    -1.0620 h1         1 KJS       0.052200
     58 H25          2.9130    -4.6230     1.1850 h1         1 KJS       0.052200
     59 H26          4.0530    -4.1830    -0.0980 h1         1 KJS       0.052200
     60 H27          2.3140    -2.9700    -1.3200 h1         1 KJS       0.042950
     61 H28          2.3920    -2.4120     0.3520 h1         1 KJS       0.042950
     62 H29          3.6300     0.1360     1.5720 ha         1 KJS       0.129500
     63 H30          6.0140     0.3830     1.1930 ha         1 KJS       0.141000
     64 H31          8.0050     1.5840     1.3550 h1         1 KJS       0.033200
     65 H32          7.9460     0.4810    -0.0250 h1         1 KJS       0.033200
     66 H33          9.5460     1.9130    -1.2630 hc         1 KJS       0.055200
     67 H34          9.5730     3.0630     0.0670 hc         1 KJS       0.055200
     68 H35         11.5430     1.5190     0.1580 hc         1 KJS       0.036367
     69 H36         10.5300     1.3180     1.5830 hc         1 KJS       0.036367
     70 H37         10.4680     0.1330     0.2810 hc         1 KJS       0.036367
     71 C16         -0.1820    -1.4580     0.6730 c3         1 KJS       0.046300
     72 C26         -7.5460    -1.3070    -0.7530 c3         1 KJS      -0.133400
@<TRIPOS>BOND
     1     1     2 ar  
     2     1    30 ar  
     3     1    35 1   
     4     2     3 ar  
     5     2    36 1   
     6     3     5 1   
     7     3    28 ar  
     8     4     8 1   
     9     4    15 1   
    10     4    71 1   
    11     5     6 1   
    12     5    37 1   
    13     5    38 1   
    14     6     8 1   
    15     6    39 1   
    16     6    40 1   
    17     7    22 1   
    18     7    23 1   
    19     7    27 1   
    20     8    21 2   
    21     9    10 ar  
    22     9    15 ar  
    23     9    21 1   
    24    10    11 ar  
    25    10    41 1   
    26    11    13 ar  
    27    11    20 1   
    28    12    16 2   
    29    12    17 1   
    30    13    14 ar  
    31    13    42 1   
    32    14    15 ar  
    33    14    43 1   
    34    16    20 1   
    35    16    72 1   
    36    17    18 1   
    37    18    19 1   
    38    18    20 2   
    39    19    47 1   
    40    19    48 1   
    41    19    49 1   
    42    22    52 1   
    43    22    53 1   
    44    22    71 1   
    45    23    24 1   
    46    23    54 1   
    47    23    55 1   
    48    24    25 1   
    49    24    56 1   
    50    24    57 1   
    51    25    26 1   
    52    26    27 1   
    53    26    58 1   
    54    26    59 1   
    55    27    60 1   
    56    27    61 1   
    57    28    29 ar  
    58    28    62 1   
    59    29    30 ar  
    60    29    63 1   
    61    30    31 1   
    62    31    32 1   
    63    32    33 1   
    64    32    64 1   
    65    32    65 1   
    66    33    34 1   
    67    33    66 1   
    68    33    67 1   
    69    34    68 1   
    70    34    69 1   
    71    34    70 1   
    72    44    72 1   
    73    45    72 1   
    74    46    72 1   
    75    50    71 1   
    76    51    71 1   
@<TRIPOS>SUBSTRUCTURE
     1 KJS         1 TEMP              0 ****  ****    0 ROOT
