@<TRIPOS>MOLECULE
KJS
   72    76     1     0     0
SMALL
No Charge or Current Charge


@<TRIPOS>ATOM
      1 C4           4.9640     3.3840    -0.0230 ca         1 KJS      -0.172000
      2 C5           3.5850     3.2130     0.1900 ca         1 KJS      -0.070000
      3 C6           3.0780     1.9540     0.5600 ca         1 KJS      -0.126300
      4 N1          -1.0440    -0.3010     0.2810 na         1 KJS      -0.178600
      5 C7           1.5850     1.7600     0.7860 c3         1 KJS      -0.022100
      6 C8           0.8770     1.2280    -0.4790 c3         1 KJS      -0.096700
      7 N2           0.6750    -3.7370    -0.0200 n3         1 KJS      -0.716600
      8 C9          -0.5750     0.9040    -0.2520 cc         1 KJS       0.420800
      9 C10         -2.7310     1.0060    -0.1810 ca         1 KJS       0.070400
     10 C11         -4.0710     1.4050    -0.2860 ca         1 KJS      -0.043000
     11 C12         -5.0970     0.5110     0.1190 ca         1 KJS      -0.025000
     12 N3          -8.7810     0.7270    -0.3570 nc         1 KJS      -0.369300
     13 C13         -4.7250    -0.7640     0.6270 ca         1 KJS      -0.085000
     14 C14         -3.3710    -1.1460     0.7270 ca         1 KJS      -0.114000
     15 C15         -2.4050    -0.2230     0.3100 ca         1 KJS      -0.080200
     16 C25         -7.6450     0.0620    -0.2560 cd         1 KJS       0.290300
     17 O2          -8.4110     2.0970    -0.1630 os         1 KJS      -0.072700
     18 C23         -7.0530     2.1660     0.0220 cc         1 KJS       0.198300
     19 C24         -6.4520     3.5220     0.2730 c3         1 KJS      -0.138400
     20 C22         -6.5280     0.8980     0.0230 cd         1 KJS      -0.174000
     21 N           -1.5970     1.7330    -0.5430 nd         1 KJS      -0.573100
     22 C17         -0.0880    -2.5220    -0.4090 c3         1 KJS       0.142800
     23 C21          0.6270    -4.7970    -1.0750 c6         1 KJS       0.124300
     24 C20          1.4100    -6.0750    -0.6510 c6         1 KJS       0.153100
     25 O1           2.7730    -5.7360    -0.3050 os         1 KJS      -0.446000
     26 C19          2.8500    -4.7690     0.7700 c6         1 KJS       0.153100
     27 C18          2.0950    -3.4630     0.3810 c6         1 KJS       0.124300
     28 C27          3.9610     0.8680     0.7110 ca         1 KJS      -0.070000
     29 C28          5.3410     1.0380     0.4970 ca         1 KJS      -0.172000
     30 C3           5.8470     2.3040     0.1280 ca         1 KJS       0.150100
     31 O            7.1890     2.5320    -0.0960 os         1 KJS      -0.348100
     32 C2           8.1740     1.4930     0.0320 c3         1 KJS       0.163600
     33 C1           9.5490     2.1090    -0.2900 c3         1 KJS      -0.081400
     34 C           10.7030     1.0930    -0.1880 c3         1 KJS      -0.090100
     35 H1           5.3500     4.3590    -0.3090 ha         1 KJS       0.123000
     36 H2           2.9120     4.0600     0.0660 ha         1 KJS       0.111500
     37 H3           1.4220     1.0620     1.6160 hc         1 KJS       0.054200
     38 H4           1.1160     2.7050     1.0890 hc         1 KJS       0.054200
     39 H5           0.9660     1.9740    -1.2770 hc         1 KJS       0.067200
     40 H6           1.3990     0.3340    -0.8380 hc         1 KJS       0.067200
     41 H8          -4.2950     2.3750    -0.7120 ha         1 KJS       0.129000
     42 H9          -5.4780    -1.4580     0.9840 ha         1 KJS       0.115000
     43 H10         -3.0970    -2.1210     1.1210 ha         1 KJS       0.120000
     44 H11         -7.6960    -1.9790     0.4420 hc         1 KJS       0.056033
     45 H12         -8.5350    -1.7220    -1.0930 hc         1 KJS       0.056033
     46 H13         -6.7720    -1.7430    -1.0600 hc         1 KJS       0.056033
     47 H14         -7.2050     4.2130     0.6700 hc         1 KJS       0.064367
     48 H15         -5.6390     3.4630     1.0060 hc         1 KJS       0.064367
     49 H16         -6.0590     3.9530    -0.6540 hc         1 KJS       0.064367
     50 H17          0.6970    -1.1490     1.0830 h1         1 KJS       0.068200
     51 H18         -0.7990    -1.9580     1.5630 h1         1 KJS       0.068200
     52 H19          0.4090    -2.0280    -1.2550 h1         1 KJS       0.046200
     53 H20         -1.0880    -2.8170    -0.7560 h1         1 KJS       0.046200
     54 H21         -0.4150    -5.0770    -1.2880 h1         1 KJS       0.042950
     55 H22          1.0570    -4.4190    -2.0150 h1         1 KJS       0.042950
     56 H23          0.9200    -6.5450     0.2140 h1         1 KJS       0.052200
     57 H24          1.4170    -6.8010    -1.4760 h1         1 KJS       0.052200
     58 H25          2.4070    -5.2020     1.6790 h1         1 KJS       0.052200
     59 H26          3.9050    -4.5440     0.9780 h1         1 KJS       0.052200
     60 H27          2.6370    -2.9750    -0.4420 h1         1 KJS       0.042950
     61 H28          2.1340    -2.7800     1.2420 h1         1 KJS       0.042950
     62 H29          3.5790    -0.1110     0.9930 ha         1 KJS       0.111500
     63 H30          5.9960     0.1820     0.6220 ha         1 KJS       0.123000
     64 H31          8.1830     1.0900     1.0540 h1         1 KJS       0.033200
     65 H32          7.9660     0.6730    -0.6690 h1         1 KJS       0.033200
     66 H33          9.5280     2.5280    -1.3030 hc         1 KJS       0.055200
     67 H34          9.7420     2.9400     0.4000 hc         1 KJS       0.055200
     68 H35         11.6590     1.5750    -0.4250 hc         1 KJS       0.036367
     69 H36         10.7690     0.6790     0.8250 hc         1 KJS       0.036367
     70 H37         10.5540     0.2640    -0.8910 hc         1 KJS       0.036367
     71 C16         -0.2810    -1.4840     0.7200 c3         1 KJS       0.075600
     72 C26         -7.6600    -1.4240    -0.5030 c3         1 KJS      -0.133400
@<TRIPOS>BOND
     1     1     2 ar  
     2     1    30 ar  
     3     1    35 1   
     4     2     3 ar  
     5     2    36 1   
     6     3     5 1   
     7     3    28 ar  
     8     4     8 1   
     9     4    15 1   
    10     4    71 1   
    11     5     6 1   
    12     5    37 1   
    13     5    38 1   
    14     6     8 1   
    15     6    39 1   
    16     6    40 1   
    17     7    22 1   
    18     7    23 1   
    19     7    27 1   
    20     8    21 2   
    21     9    10 ar  
    22     9    15 ar  
    23     9    21 1   
    24    10    11 ar  
    25    10    41 1   
    26    11    13 ar  
    27    11    20 1   
    28    12    16 2   
    29    12    17 1   
    30    13    14 ar  
    31    13    42 1   
    32    14    15 ar  
    33    14    43 1   
    34    16    20 1   
    35    16    72 1   
    36    17    18 1   
    37    18    19 1   
    38    18    20 2   
    39    19    47 1   
    40    19    48 1   
    41    19    49 1   
    42    22    52 1   
    43    22    53 1   
    44    22    71 1   
    45    23    24 1   
    46    23    54 1   
    47    23    55 1   
    48    24    25 1   
    49    24    56 1   
    50    24    57 1   
    51    25    26 1   
    52    26    27 1   
    53    26    58 1   
    54    26    59 1   
    55    27    60 1   
    56    27    61 1   
    57    28    29 ar  
    58    28    62 1   
    59    29    30 ar  
    60    29    63 1   
    61    30    31 1   
    62    31    32 1   
    63    32    33 1   
    64    32    64 1   
    65    32    65 1   
    66    33    34 1   
    67    33    66 1   
    68    33    67 1   
    69    34    68 1   
    70    34    69 1   
    71    34    70 1   
    72    44    72 1   
    73    45    72 1   
    74    46    72 1   
    75    50    71 1   
    76    51    71 1   
@<TRIPOS>SUBSTRUCTURE
     1 KJS         1 TEMP              0 ****  ****    0 ROOT
