@<TRIPOS>MOLECULE
KJU
   18    19     1     0     0
SMALL
No Charge or Current Charge


@<TRIPOS>ATOM
      1 C1           1.8660    -1.3650    -0.0860 ca         1 KJU      -0.102000
      2 C2           0.5650    -1.9030    -0.1070 ca         1 KJU      -0.094000
      3 C3          -0.5450    -1.0440    -0.0490 ca         1 KJU       0.079100
      4 C4          -0.3550     0.3550     0.0060 ca         1 KJU      -0.071000
      5 C5           0.9440     0.8920     0.0200 ca         1 KJU      -0.124000
      6 C6           2.0520     0.0280    -0.0200 ca         1 KJU       0.126000
      7 Cl7          3.6800     0.6930    -0.0010 cl         1 KJU      -0.193000
      8 N8          -1.4980     1.1850    -0.0130 ns         1 KJU      -0.142000
      9 C9          -2.7930     0.7160    -0.0110 c          1 KJU       0.542000
     10 O10         -3.7460     1.3760    -0.4110 o          1 KJU      -0.523000
     11 C11         -2.8970    -0.7460     0.4660 c6         1 KJU       0.072600
     12 O12         -1.8240    -1.5690    -0.0740 os         1 KJU      -0.323100
     13 H1           2.7290    -2.0250    -0.1240 ha         1 KJU       0.137000
     14 H2           0.4170    -2.9790    -0.1600 ha         1 KJU       0.137000
     15 H5           1.0970     1.9680     0.0550 ha         1 KJU       0.135000
     16 HN8         -1.3580     2.1560    -0.2610 hn         1 KJU       0.168000
     17 H11         -2.8290    -0.7370     1.5620 h1         1 KJU       0.086700
     18 H11A        -3.8720    -1.1520     0.1640 h1         1 KJU       0.086700
@<TRIPOS>BOND
     1     1     2 ar  
     2     1     6 ar  
     3     1    13 1   
     4     2     3 ar  
     5     2    14 1   
     6     3     4 ar  
     7     3    12 1   
     8     4     5 ar  
     9     4     8 1   
    10     5     6 ar  
    11     5    15 1   
    12     6     7 1   
    13     8     9 1   
    14     8    16 1   
    15     9    10 2   
    16     9    11 1   
    17    11    12 1   
    18    11    17 1   
    19    11    18 1   
@<TRIPOS>SUBSTRUCTURE
     1 KJU         1 TEMP              0 ****  ****    0 ROOT
