@<TRIPOS>MOLECULE
KJU
   18    19     1     0     0
SMALL
bcc


@<TRIPOS>ATOM
      1 C1           1.8240    -1.3590    -0.0160 ca         1 KJU      -0.120000
      2 C2           0.5370    -1.8770    -0.0660 ca         1 KJU      -0.112000
      3 C3          -0.5530    -1.0280    -0.1170 ca         1 KJU       0.079100
      4 C4          -0.3650     0.3540    -0.1020 ca         1 KJU       0.021600
      5 C5           0.9160     0.8810    -0.0380 ca         1 KJU      -0.142000
      6 C6           1.9970     0.0150     0.0020 ca         1 KJU       0.034400
      7 CL7          3.5980     0.6760     0.0730 cl         1 KJU      -0.101400
      8 N8          -1.4890     1.1700    -0.1930 ns         1 KJU      -0.468100
      9 C9          -2.7420     0.7170     0.0460 c          1 KJU       0.684500
     10 O10         -3.7270     1.4270     0.0200 o          1 KJU      -0.598500
     11 C11         -2.8080    -0.7510     0.4120 c6         1 KJU       0.049400
     12 O12         -1.8070    -1.5270    -0.2200 os         1 KJU      -0.299900
     13 H1           2.6750    -2.0250     0.0180 ha         1 KJU       0.155000
     14 H2           0.3840    -2.9480    -0.0810 ha         1 KJU       0.155000
     15 H5           1.0600     1.9540    -0.0270 ha         1 KJU       0.153000
     16 HN8         -1.3630     2.1590    -0.3630 hn         1 KJU       0.334500
     17 H11         -2.7350    -0.8340     1.5040 h1         1 KJU       0.086700
     18 H11A        -3.7700    -1.1560     0.1040 h1         1 KJU       0.086700
@<TRIPOS>BOND
     1     1     2 ar  
     2     1     6 ar  
     3     1    13 1   
     4     2     3 ar  
     5     2    14 1   
     6     3     4 ar  
     7     3    12 1   
     8     4     5 ar  
     9     4     8 1   
    10     5     6 ar  
    11     5    15 1   
    12     6     7 1   
    13     8     9 1   
    14     8    16 1   
    15     9    10 2   
    16     9    11 1   
    17    11    12 1   
    18    11    17 1   
    19    11    18 1   
@<TRIPOS>SUBSTRUCTURE
     1 KJU         1 TEMP              0 ****  ****    0 ROOT
