@<TRIPOS>MOLECULE
KJV
   73    77     1     0     0
SMALL
abcg2


@<TRIPOS>ATOM
      1 C35        -27.4590   -50.0450    -7.4390 c3         1 KJV       0.148600
      2 N34        -26.3110   -50.7030    -8.0490 n3         1 KJV      -0.714600
      3 C36        -26.6160   -51.0970    -9.4180 c3         1 KJV       0.148600
      4 C33        -25.1080   -49.8740    -8.0110 c3         1 KJV       0.164800
      5 C32        -24.6040   -49.6110    -6.5970 c3         1 KJV      -0.079400
      6 C31        -23.2190   -48.9480    -6.6020 c3         1 KJV      -0.163400
      7 C29        -22.7930   -48.5540    -5.2020 c          1 KJV       0.602100
      8 O30        -22.8820   -47.4030    -4.7890 o          1 KJV      -0.583100
      9 N28        -22.3490   -49.5990    -4.4440 ns         1 KJV      -0.149000
     10 C21        -21.9920   -49.6300    -3.0880 ca         1 KJV      -0.026000
     11 C22        -21.8380   -50.8920    -2.5060 ca         1 KJV      -0.167000
     12 C20        -21.7740   -48.4880    -2.3130 ca         1 KJV      -0.131000
     13 C19        -21.4120   -48.6310    -0.9770 ca         1 KJV      -0.087000
     14 C18        -21.2680   -49.8830    -0.3960 ca         1 KJV      -0.121000
     15 C10        -21.4810   -51.0280    -1.1670 ca         1 KJV      -0.007800
     16 C7         -21.3880   -52.3760    -0.5770 cc         1 KJV      -0.040400
     17 C1         -22.4790   -53.3080    -0.4470 ca         1 KJV      -0.280800
     18 C8         -20.2990   -52.9970    -0.0270 cd         1 KJV       0.093900
     19 C11        -18.9060   -52.6210     0.1470 ca         1 KJV      -0.039800
     20 C23        -18.3190   -51.6310    -0.6540 ca         1 KJV      -0.081500
     21 C24        -16.9910   -51.2730    -0.4690 ca         1 KJV      -0.116000
     22 C25        -16.2220   -51.8980     0.5090 ca         1 KJV      -0.097000
     23 C26        -16.7920   -52.8920     1.3000 ca         1 KJV      -0.116000
     24 C27        -18.1210   -53.2520     1.1230 ca         1 KJV      -0.081500
     25 O9         -20.6500   -54.2600     0.4440 os         1 KJV      -0.286400
     26 C2         -21.9660   -54.4340     0.1800 ca         1 KJV       0.297300
     27 N3         -22.6200   -55.5410     0.5070 nb         1 KJV      -0.205000
     28 C4         -23.9100   -55.4770     0.1670 ca         1 KJV       0.182900
     29 N5         -24.5560   -54.4600    -0.4070 nb         1 KJV      -0.279000
     30 C6         -23.8700   -53.3420    -0.7120 ca         1 KJV       0.439900
     31 N          -24.5230   -52.2930    -1.2380 nu         1 KJV      -0.915100
     32 CA         -25.9520   -52.2540    -1.4990 c3         1 KJV       0.293800
     33 C          -26.2550   -51.0070    -2.3250 c3         1 KJV       0.143600
     34 O          -25.5450   -51.0860    -3.5590 oh         1 KJV      -0.670000
     35 C12        -26.7930   -52.2380    -0.2350 ca         1 KJV      -0.097300
     36 C13        -26.3480   -51.6030     0.9220 ca         1 KJV      -0.094000
     37 C14        -27.1530   -51.5570     2.0550 ca         1 KJV      -0.110000
     38 C15        -28.4150   -52.1420     2.0410 ca         1 KJV      -0.105000
     39 C16        -28.8670   -52.7760     0.8870 ca         1 KJV      -0.110000
     40 C17        -28.0580   -52.8230    -0.2430 ca         1 KJV      -0.094000
     41 H1         -27.2750   -49.8460    -6.3840 h1         1 KJV       0.032200
     42 H2         -27.7030   -49.0880    -7.9330 h1         1 KJV       0.032200
     43 H3         -28.3310   -50.6960    -7.5120 h1         1 KJV       0.032200
     44 H5         -27.4830   -51.7590    -9.4260 h1         1 KJV       0.032200
     45 H6         -26.8400   -50.2320   -10.0660 h1         1 KJV       0.032200
     46 H7         -25.7670   -51.6320    -9.8480 h1         1 KJV       0.032200
     47 H8         -24.3300   -50.4000    -8.5710 h1         1 KJV       0.032700
     48 H9         -25.2760   -48.9100    -8.5250 h1         1 KJV       0.032700
     49 H10        -25.3010   -48.9630    -6.0600 hc         1 KJV       0.054700
     50 H11        -24.5590   -50.5620    -6.0620 hc         1 KJV       0.054700
     51 H12        -22.4860   -49.6300    -7.0400 hc         1 KJV       0.070700
     52 H13        -23.2380   -48.0370    -7.2000 hc         1 KJV       0.070700
     53 H14        -22.3660   -50.5020    -4.8950 hn         1 KJV       0.156000
     54 H15        -22.0010   -51.7770    -3.1090 ha         1 KJV       0.125000
     55 H16        -21.8870   -47.5110    -2.7510 ha         1 KJV       0.150000
     56 H17        -21.2460   -47.7420    -0.3810 ha         1 KJV       0.120000
     57 H18        -20.9960   -49.9800     0.6470 ha         1 KJV       0.127000
     58 H19        -18.8990   -51.1510    -1.4290 ha         1 KJV       0.126500
     59 H20        -16.5530   -50.5090    -1.0980 ha         1 KJV       0.116500
     60 H21        -15.1870   -51.6170     0.6500 ha         1 KJV       0.114000
     61 H22        -16.2020   -53.3860     2.0610 ha         1 KJV       0.116500
     62 H23        -18.5590   -54.0190     1.7460 ha         1 KJV       0.126500
     63 H24        -24.5080   -56.3540     0.3880 h5         1 KJV       0.052100
     64 H25        -23.9790   -51.4860    -1.4980 hn         1 KJV       0.513000
     65 H26        -26.2280   -53.1320    -2.0880 h1         1 KJV       0.087700
     66 H27        -25.9520   -50.1180    -1.7600 h1         1 KJV       0.039700
     67 H28        -27.3340   -50.9590    -2.4940 h1         1 KJV       0.039700
     68 H29        -25.5370   -50.2110    -3.9640 ho         1 KJV       0.447000
     69 H30        -25.3630   -51.1540     0.9400 ha         1 KJV       0.114000
     70 H31        -26.7930   -51.0650     2.9500 ha         1 KJV       0.114000
     71 H32        -29.0410   -52.1090     2.9240 ha         1 KJV       0.113000
     72 H33        -29.8450   -53.2390     0.8690 ha         1 KJV       0.114000
     73 H34        -28.4070   -53.3260    -1.1380 ha         1 KJV       0.114000
@<TRIPOS>BOND
     1     1     2 1   
     2     1    41 1   
     3     1    42 1   
     4     1    43 1   
     5     2     3 1   
     6     2     4 1   
     7     3    44 1   
     8     3    45 1   
     9     3    46 1   
    10     4     5 1   
    11     4    47 1   
    12     4    48 1   
    13     5     6 1   
    14     5    49 1   
    15     5    50 1   
    16     6     7 1   
    17     6    51 1   
    18     6    52 1   
    19     7     8 2   
    20     7     9 1   
    21     9    10 1   
    22     9    53 1   
    23    10    11 ar  
    24    10    12 ar  
    25    11    15 ar  
    26    11    54 1   
    27    12    13 ar  
    28    12    55 1   
    29    13    14 ar  
    30    13    56 1   
    31    14    15 ar  
    32    14    57 1   
    33    15    16 1   
    34    16    17 1   
    35    16    18 2   
    36    17    26 ar  
    37    17    30 ar  
    38    18    19 1   
    39    18    25 1   
    40    19    20 ar  
    41    19    24 ar  
    42    20    21 ar  
    43    20    58 1   
    44    21    22 ar  
    45    21    59 1   
    46    22    23 ar  
    47    22    60 1   
    48    23    24 ar  
    49    23    61 1   
    50    24    62 1   
    51    25    26 1   
    52    26    27 ar  
    53    27    28 ar  
    54    28    29 ar  
    55    28    63 1   
    56    29    30 ar  
    57    30    31 1   
    58    31    32 1   
    59    31    64 1   
    60    32    33 1   
    61    32    35 1   
    62    32    65 1   
    63    33    34 1   
    64    33    66 1   
    65    33    67 1   
    66    34    68 1   
    67    35    36 ar  
    68    35    40 ar  
    69    36    37 ar  
    70    36    69 1   
    71    37    38 ar  
    72    37    70 1   
    73    38    39 ar  
    74    38    71 1   
    75    39    40 ar  
    76    39    72 1   
    77    40    73 1   
@<TRIPOS>SUBSTRUCTURE
     1 KJV         1 TEMP              0 ****  ****    0 ROOT
