@<TRIPOS>MOLECULE
KJV
   73    77     1     0     0
SMALL
No Charge or Current Charge


@<TRIPOS>ATOM
      1 C35        -26.9740   -48.1140    -8.7080 c3         1 KJV       0.148600
      2 N34        -26.6740   -49.5630    -8.6040 n3         1 KJV      -0.714600
      3 C36        -27.2120   -50.3190    -9.7560 c3         1 KJV       0.148600
      4 C33        -25.2400   -49.8650    -8.3610 c3         1 KJV       0.164800
      5 C32        -24.6770   -49.3090    -7.0320 c3         1 KJV      -0.079400
      6 C31        -23.2360   -49.7940    -6.7360 c3         1 KJV      -0.163400
      7 C29        -22.7130   -49.2370    -5.4050 c          1 KJV       0.602100
      8 O30        -22.3760   -48.0640    -5.2930 o          1 KJV      -0.583100
      9 N28        -22.6210   -50.1780    -4.3880 ns         1 KJV      -0.149000
     10 C21        -22.2270   -50.0740    -3.0270 ca         1 KJV      -0.026000
     11 C22        -22.0140   -51.2700    -2.3170 ca         1 KJV      -0.167000
     12 C20        -22.0640   -48.8410    -2.3580 ca         1 KJV      -0.131000
     13 C19        -21.6860   -48.8140    -1.0050 ca         1 KJV      -0.087000
     14 C18        -21.4710   -50.0140    -0.3100 ca         1 KJV      -0.121000
     15 C10        -21.6300   -51.2470    -0.9650 ca         1 KJV      -0.007800
     16 C7         -21.4310   -52.4950    -0.2390 cc         1 KJV      -0.040400
     17 C1         -22.3970   -53.5250     0.0840 ca         1 KJV      -0.280800
     18 C8         -20.2470   -52.9010     0.3740 cd         1 KJV       0.093900
     19 C11        -18.8580   -52.3800     0.3470 ca         1 KJV      -0.039800
     20 C23        -18.4490   -51.3730    -0.5560 ca         1 KJV      -0.081500
     21 C24        -17.1240   -50.9010    -0.5570 ca         1 KJV      -0.116000
     22 C25        -16.1850   -51.4300     0.3390 ca         1 KJV      -0.097000
     23 C26        -16.5710   -52.4390     1.2340 ca         1 KJV      -0.116000
     24 C27        -17.8940   -52.9130     1.2350 ca         1 KJV      -0.081500
     25 O9         -20.4590   -54.1020     1.0160 os         1 KJV      -0.286400
     26 C2         -21.7590   -54.4740     0.8420 ca         1 KJV       0.297300
     27 N3         -22.3670   -55.5650     1.3320 nb         1 KJV      -0.205000
     28 C4         -23.6810   -55.6580     1.0110 ca         1 KJV       0.182900
     29 N5         -24.4060   -54.7760     0.2750 nb         1 KJV      -0.279000
     30 C6         -23.7540   -53.6890    -0.1910 ca         1 KJV       0.439900
     31 N          -24.4500   -52.7590    -0.9420 nu         1 KJV      -0.915100
     32 CA         -25.8870   -52.7450    -1.2710 c3         1 KJV       0.293800
     33 C          -26.2120   -51.6570    -2.3430 c3         1 KJV       0.143600
     34 O          -25.4630   -51.8560    -3.5610 oh         1 KJV      -0.670000
     35 C12        -26.7190   -52.5390    -0.0010 ca         1 KJV      -0.097300
     36 C13        -26.5440   -51.3880     0.7990 ca         1 KJV      -0.094000
     37 C14        -27.3110   -51.2060     1.9620 ca         1 KJV      -0.110000
     38 C15        -28.2600   -52.1720     2.3380 ca         1 KJV      -0.105000
     39 C16        -28.4390   -53.3210     1.5490 ca         1 KJV      -0.110000
     40 C17        -27.6720   -53.5040     0.3860 ca         1 KJV      -0.094000
     41 H1         -26.7220   -47.5870    -7.7790 h1         1 KJV       0.032200
     42 H2         -26.4110   -47.6550    -9.5320 h1         1 KJV       0.032200
     43 H3         -28.0440   -47.9540    -8.8950 h1         1 KJV       0.032200
     44 H5         -28.2910   -50.1460    -9.8660 h1         1 KJV       0.032200
     45 H6         -26.7180   -50.0160   -10.6900 h1         1 KJV       0.032200
     46 H7         -27.0580   -51.3980    -9.6210 h1         1 KJV       0.032200
     47 H8         -25.1040   -50.9560    -8.3450 h1         1 KJV       0.032700
     48 H9         -24.6300   -49.4810    -9.1900 h1         1 KJV       0.032700
     49 H10        -24.6820   -48.2130    -7.0590 hc         1 KJV       0.054700
     50 H11        -25.3370   -49.6150    -6.2100 hc         1 KJV       0.054700
     51 H12        -23.2360   -50.8910    -6.7080 hc         1 KJV       0.070700
     52 H13        -22.5800   -49.4450    -7.5420 hc         1 KJV       0.070700
     53 H14        -22.9060   -51.1100    -4.6600 hn         1 KJV       0.156000
     54 H15        -22.1360   -52.2270    -2.8210 ha         1 KJV       0.125000
     55 H16        -22.2380   -47.8960    -2.8650 ha         1 KJV       0.150000
     56 H17        -21.5650   -47.8620    -0.4940 ha         1 KJV       0.120000
     57 H18        -21.1840   -49.9880     0.7390 ha         1 KJV       0.127000
     58 H19        -19.1380   -50.9600    -1.2840 ha         1 KJV       0.126500
     59 H20        -16.8260   -50.1260    -1.2610 ha         1 KJV       0.116500
     60 H21        -15.1600   -51.0640     0.3370 ha         1 KJV       0.114000
     61 H22        -15.8440   -52.8560     1.9290 ha         1 KJV       0.116500
     62 H23        -18.1690   -53.6920     1.9420 ha         1 KJV       0.126500
     63 H24        -24.2120   -56.5310     1.3870 h5         1 KJV       0.052100
     64 H25        -23.8720   -52.0480    -1.3860 hn         1 KJV       0.513000
     65 H26        -26.1610   -53.7150    -1.7130 h1         1 KJV       0.087700
     66 H27        -25.9950   -50.6640    -1.9270 h1         1 KJV       0.039700
     67 H28        -27.2890   -51.6950    -2.5550 h1         1 KJV       0.039700
     68 H29        -25.8940   -51.3090    -4.2530 ho         1 KJV       0.447000
     69 H30        -25.8070   -50.6380     0.5220 ha         1 KJV       0.114000
     70 H31        -27.1690   -50.3180     2.5730 ha         1 KJV       0.114000
     71 H32        -28.8530   -52.0310     3.2380 ha         1 KJV       0.113000
     72 H33        -29.1720   -54.0700     1.8400 ha         1 KJV       0.114000
     73 H34        -27.8180   -54.3990    -0.2150 ha         1 KJV       0.114000
@<TRIPOS>BOND
     1     1     2 1   
     2     1    41 1   
     3     1    42 1   
     4     1    43 1   
     5     2     3 1   
     6     2     4 1   
     7     3    44 1   
     8     3    45 1   
     9     3    46 1   
    10     4     5 1   
    11     4    47 1   
    12     4    48 1   
    13     5     6 1   
    14     5    49 1   
    15     5    50 1   
    16     6     7 1   
    17     6    51 1   
    18     6    52 1   
    19     7     8 2   
    20     7     9 1   
    21     9    10 1   
    22     9    53 1   
    23    10    11 ar  
    24    10    12 ar  
    25    11    15 ar  
    26    11    54 1   
    27    12    13 ar  
    28    12    55 1   
    29    13    14 ar  
    30    13    56 1   
    31    14    15 ar  
    32    14    57 1   
    33    15    16 1   
    34    16    17 1   
    35    16    18 2   
    36    17    26 ar  
    37    17    30 ar  
    38    18    19 1   
    39    18    25 1   
    40    19    20 ar  
    41    19    24 ar  
    42    20    21 ar  
    43    20    58 1   
    44    21    22 ar  
    45    21    59 1   
    46    22    23 ar  
    47    22    60 1   
    48    23    24 ar  
    49    23    61 1   
    50    24    62 1   
    51    25    26 1   
    52    26    27 ar  
    53    27    28 ar  
    54    28    29 ar  
    55    28    63 1   
    56    29    30 ar  
    57    30    31 1   
    58    31    32 1   
    59    31    64 1   
    60    32    33 1   
    61    32    35 1   
    62    32    65 1   
    63    33    34 1   
    64    33    66 1   
    65    33    67 1   
    66    34    68 1   
    67    35    36 ar  
    68    35    40 ar  
    69    36    37 ar  
    70    36    69 1   
    71    37    38 ar  
    72    37    70 1   
    73    38    39 ar  
    74    38    71 1   
    75    39    40 ar  
    76    39    72 1   
    77    40    73 1   
@<TRIPOS>SUBSTRUCTURE
     1 KJV         1 TEMP              0 ****  ****    0 ROOT
