@<TRIPOS>MOLECULE
KJW
   22    21     1     0     0
SMALL
No Charge or Current Charge


@<TRIPOS>ATOM
      1 CB         -16.3670    19.5700    -4.1450 c3         1 KJW       0.166100
      2 CA         -16.9910    18.7630    -2.9630 c3         1 KJW      -0.016500
      3 CG         -16.5800    21.1210    -4.1520 c3         1 KJW      -0.045700
      4 CD2        -15.7960    21.8510    -3.0360 c3         1 KJW      -0.084600
      5 CD1        -18.0670    21.5620    -4.1620 c3         1 KJW      -0.084600
      6 OE         -16.9120    18.9930    -5.3310 oh         1 KJW      -0.651800
      7 C          -16.1520    18.9530    -1.6320 c          1 KJW       0.907600
      8 O          -14.9770    18.6020    -1.6190 o          1 KJW      -0.835800
      9 N          -17.2660    17.3200    -3.3940 n8         1 KJW      -0.922800
     10 OXT        -16.7420    19.3020    -0.6150 o          1 KJW      -0.835800
     11 HB3        -15.2840    19.3840    -4.1430 h1         1 KJW       0.037700
     12 HA         -17.9770    19.1970    -2.7580 h1         1 KJW       0.046700
     13 HG         -16.1480    21.4790    -5.0960 hc         1 KJW       0.024700
     14 HD23       -15.8030    22.9340    -3.2100 hc         1 KJW       0.030200
     15 HD21       -16.2410    21.6700    -2.0520 hc         1 KJW       0.030200
     16 HD22       -14.7500    21.5220    -3.0140 hc         1 KJW       0.030200
     17 HD12       -18.6180    21.0800    -4.9770 hc         1 KJW       0.030200
     18 HD13       -18.5620    21.3160    -3.2160 hc         1 KJW       0.030200
     19 HD11       -18.1420    22.6470    -4.3060 hc         1 KJW       0.030200
     20 HE         -17.2650    18.1400    -4.9650 ho         1 KJW       0.430000
     21 H          -16.3770    16.8030    -3.4010 hn         1 KJW       0.340800
     22 H2         -17.8100    16.8480    -2.6620 hn         1 KJW       0.340800
@<TRIPOS>BOND
     1     1     2 1   
     2     1     3 1   
     3     1     6 1   
     4     1    11 1   
     5     2     7 1   
     6     2     9 1   
     7     2    12 1   
     8     3     4 1   
     9     3     5 1   
    10     3    13 1   
    11     4    14 1   
    12     4    15 1   
    13     4    16 1   
    14     5    17 1   
    15     5    18 1   
    16     5    19 1   
    17     6    20 1   
    18     7     8 1   
    19     7    10 1   
    20     9    21 1   
    21     9    22 1   
@<TRIPOS>SUBSTRUCTURE
     1 KJW         1 TEMP              0 ****  ****    0 ROOT
