@<TRIPOS>MOLECULE
KJW
   22    21     1     0     0
SMALL
bcc


@<TRIPOS>ATOM
      1 CB         -16.4130    19.5670    -4.1510 c3         1 KJW       0.166100
      2 CA         -17.0660    18.7760    -2.9960 c3         1 KJW      -0.016500
      3 CG         -16.6010    21.0890    -4.1400 c3         1 KJW      -0.045700
      4 CD2        -15.7050    21.7980    -3.1280 c3         1 KJW      -0.084600
      5 CD1        -18.0540    21.5210    -3.9720 c3         1 KJW      -0.084600
      6 OE         -16.9320    19.0730    -5.3680 oh         1 KJW      -0.651800
      7 C          -16.3750    19.0040    -1.6340 c          1 KJW       0.907600
      8 O          -15.2430    18.4910    -1.5100 o          1 KJW      -0.835800
      9 N          -17.0400    17.3680    -3.4090 n8         1 KJW      -0.922800
     10 OXT        -16.9970    19.6610    -0.7750 o          1 KJW      -0.835800
     11 HB3        -15.3280    19.3700    -4.1030 h1         1 KJW       0.037700
     12 HA         -18.1170    19.0670    -2.9260 h1         1 KJW       0.046700
     13 HG         -16.2720    21.4190    -5.1330 hc         1 KJW       0.024700
     14 HD23       -15.7320    22.8770    -3.2900 hc         1 KJW       0.030200
     15 HD21       -16.0270    21.6130    -2.1040 hc         1 KJW       0.030200
     16 HD22       -14.6650    21.4780    -3.2180 hc         1 KJW       0.030200
     17 HD12       -18.7180    20.9980    -4.6620 hc         1 KJW       0.030200
     18 HD13       -18.4110    21.3370    -2.9570 hc         1 KJW       0.030200
     19 HD11       -18.1590    22.5910    -4.1630 hc         1 KJW       0.030200
     20 HE         -17.1220    18.1390    -5.1600 ho         1 KJW       0.430000
     21 H          -16.1320    16.9830    -3.1700 hn         1 KJW       0.340800
     22 H2         -17.7200    16.8380    -2.8790 hn         1 KJW       0.340800
@<TRIPOS>BOND
     1     1     2 1   
     2     1     3 1   
     3     1     6 1   
     4     1    11 1   
     5     2     7 1   
     6     2     9 1   
     7     2    12 1   
     8     3     4 1   
     9     3     5 1   
    10     3    13 1   
    11     4    14 1   
    12     4    15 1   
    13     4    16 1   
    14     5    17 1   
    15     5    18 1   
    16     5    19 1   
    17     6    20 1   
    18     7     8 1   
    19     7    10 1   
    20     9    21 1   
    21     9    22 1   
@<TRIPOS>SUBSTRUCTURE
     1 KJW         1 TEMP              0 ****  ****    0 ROOT
