@<TRIPOS>MOLECULE
KJX
   76    79     1     0     0
SMALL
No Charge or Current Charge


@<TRIPOS>ATOM
      1 C10        117.6250   139.2990   140.5350 c6         1 KJX      -0.002800
      2 C13        113.9130   144.2750   142.0710 c5         1 KJX      -0.074400
      3 C14        116.9570   142.0510   139.3580 c6         1 KJX       0.213500
      4 C15        112.4590   143.0570   143.8900 c3         1 KJX      -0.045700
      5 C16        115.5540   142.3020   143.8120 c3         1 KJX      -0.077100
      6 C17        118.3590   139.9410   139.3300 c2         1 KJX      -0.073400
      7 C18        117.2690   137.8080   140.2040 c6         1 KJX      -0.064400
      8 C11        115.2050   143.9170   141.2700 c5         1 KJX      -0.069400
      9 C12        115.6090   139.6330   142.2130 c6         1 KJX      -0.070400
     10 C04        114.6040   141.9810   142.6080 c5         1 KJX      -0.040000
     11 C05        115.1570   142.3700   141.2000 c5         1 KJX      -0.060700
     12 C06        116.4700   141.6300   140.7830 c6         1 KJX      -0.031700
     13 C07        116.2790   140.0760   140.8600 c6         1 KJX      -0.047700
     14 C08        113.3230   142.9060   142.5840 c5         1 KJX      -0.053700
     15 C09        114.3330   140.4440   142.5730 c6         1 KJX      -0.062400
     16 C19        118.0680   141.1640   138.8500 c2         1 KJX      -0.271200
     17 C20        118.6290   139.3560   141.7420 c3         1 KJX      -0.081100
     18 C21        119.4800   139.1100   138.6930 c6         1 KJX      -0.042200
     19 C22        118.4550   136.9900   139.6310 c6         1 KJX      -0.112400
     20 C23        111.3150   144.1100   143.7590 c3         1 KJX      -0.073400
     21 C24        119.0320   137.6680   138.3690 c6         1 KJX       0.173300
     22 C25        111.8990   141.7240   144.4450 c3         1 KJX      -0.086100
     23 C26        110.2260   143.7930   142.7020 c3         1 KJX      -0.072400
     24 C27        109.1040   144.8630   142.6600 c3         1 KJX      -0.062400
     25 C28        107.9350   144.5970   141.6620 c3         1 KJX       0.183000
     26 C29        108.4270   144.4640   140.2010 c3         1 KJX      -0.120600
     27 C30        106.8830   145.7250   141.7670 c3         1 KJX      -0.120600
     28 O01        115.9120   141.9810   138.3850 oh         1 KJX      -0.658000
     29 O02        120.1360   136.9090   137.8650 oh         1 KJX      -0.661000
     30 O03        107.2880   143.3760   142.0220 oh         1 KJX      -0.661000
     31 H2         113.1880   144.8040   141.4430 hc         1 KJX       0.038700
     32 H3         114.1570   144.9500   142.9000 hc         1 KJX       0.038700
     33 H5         117.3330   143.0830   139.4150 h1         1 KJX       0.034700
     34 H6         113.1180   143.4510   144.6740 hc         1 KJX       0.042700
     35 H7         115.1470   141.8910   144.7430 hc         1 KJX       0.031367
     36 H8         116.5550   141.8760   143.6860 hc         1 KJX       0.031367
     37 H9         115.6880   143.3770   143.9730 hc         1 KJX       0.031367
     38 H11        116.8920   137.2950   141.0990 hc         1 KJX       0.044700
     39 H12        116.4490   137.7780   139.4720 hc         1 KJX       0.044700
     40 H13        116.1060   144.2730   141.7840 hc         1 KJX       0.040700
     41 H14        115.2080   144.3720   140.2740 hc         1 KJX       0.040700
     42 H16        115.3340   138.5720   142.1630 hc         1 KJX       0.037700
     43 H17        116.3130   139.7160   143.0470 hc         1 KJX       0.037700
     44 H18        114.4250   142.0740   140.4380 hc         1 KJX       0.063700
     45 H19        117.2570   141.9230   141.4880 hc         1 KJX       0.053700
     46 H20        115.5640   139.8170   140.0670 hc         1 KJX       0.060700
     47 H22        112.6320   142.5150   141.8280 hc         1 KJX       0.047700
     48 H23        113.5460   140.2200   141.8390 hc         1 KJX       0.041200
     49 H24        113.9600   140.0840   143.5380 hc         1 KJX       0.041200
     50 H25        118.6380   141.5750   138.0160 ha         1 KJX       0.169000
     51 H27        118.2650   138.7920   142.6070 hc         1 KJX       0.035700
     52 H28        119.6040   138.9230   141.4950 hc         1 KJX       0.035700
     53 H29        118.8190   140.3850   142.0680 hc         1 KJX       0.035700
     54 H30        119.8340   139.5910   137.7710 hc         1 KJX       0.059200
     55 H31        120.3480   139.0850   139.3640 hc         1 KJX       0.059200
     56 H32        119.2380   136.8690   140.3910 hc         1 KJX       0.045700
     57 H33        118.1080   135.9780   139.3830 hc         1 KJX       0.045700
     58 H34        110.8300   144.2220   144.7370 hc         1 KJX       0.035200
     59 H35        111.7470   145.0930   143.5360 hc         1 KJX       0.035200
     60 H36        118.2380   137.7180   137.6080 h1         1 KJX       0.031700
     61 H37        111.1210   141.9070   145.1970 hc         1 KJX       0.032700
     62 H38        111.4630   141.1120   143.6460 hc         1 KJX       0.032700
     63 H39        112.6850   141.1490   144.9440 hc         1 KJX       0.032700
     64 H40        110.6950   143.7270   141.7150 hc         1 KJX       0.046700
     65 H41        109.7840   142.8130   142.9170 hc         1 KJX       0.046700
     66 H42        108.6850   144.9650   143.6690 hc         1 KJX       0.043200
     67 H43        109.5580   145.8330   142.4190 hc         1 KJX       0.043200
     68 H44        107.5810   144.3640   139.5090 hc         1 KJX       0.039867
     69 H45        109.0010   145.3500   139.9030 hc         1 KJX       0.039867
     70 H46        109.0660   143.5830   140.0700 hc         1 KJX       0.039867
     71 H47        106.0350   145.5400   141.0950 hc         1 KJX       0.039867
     72 H48        106.4940   145.8050   142.7890 hc         1 KJX       0.039867
     73 H49        107.3230   146.6920   141.4950 hc         1 KJX       0.039867
     74 H50        116.3460   142.0870   137.5130 ho         1 KJX       0.439000
     75 H51        119.7870   136.0170   137.6480 ho         1 KJX       0.442000
     76 H52        106.5610   143.2400   141.3780 ho         1 KJX       0.437000
@<TRIPOS>BOND
     1     1     6 1   
     2     1     7 1   
     3     1    13 1   
     4     1    17 1   
     5     2     8 1   
     6     2    14 1   
     7     2    31 1   
     8     2    32 1   
     9     3    12 1   
    10     3    16 1   
    11     3    28 1   
    12     3    33 1   
    13     4    14 1   
    14     4    20 1   
    15     4    22 1   
    16     4    34 1   
    17     5    10 1   
    18     5    35 1   
    19     5    36 1   
    20     5    37 1   
    21     6    16 2   
    22     6    18 1   
    23     7    19 1   
    24     7    38 1   
    25     7    39 1   
    26     8    11 1   
    27     8    40 1   
    28     8    41 1   
    29     9    13 1   
    30     9    15 1   
    31     9    42 1   
    32     9    43 1   
    33    10    11 1   
    34    10    14 1   
    35    10    15 1   
    36    11    12 1   
    37    11    44 1   
    38    12    13 1   
    39    12    45 1   
    40    13    46 1   
    41    14    47 1   
    42    15    48 1   
    43    15    49 1   
    44    16    50 1   
    45    17    51 1   
    46    17    52 1   
    47    17    53 1   
    48    18    21 1   
    49    18    54 1   
    50    18    55 1   
    51    19    21 1   
    52    19    56 1   
    53    19    57 1   
    54    20    23 1   
    55    20    58 1   
    56    20    59 1   
    57    21    29 1   
    58    21    60 1   
    59    22    61 1   
    60    22    62 1   
    61    22    63 1   
    62    23    24 1   
    63    23    64 1   
    64    23    65 1   
    65    24    25 1   
    66    24    66 1   
    67    24    67 1   
    68    25    26 1   
    69    25    27 1   
    70    25    30 1   
    71    26    68 1   
    72    26    69 1   
    73    26    70 1   
    74    27    71 1   
    75    27    72 1   
    76    27    73 1   
    77    28    74 1   
    78    29    75 1   
    79    30    76 1   
@<TRIPOS>SUBSTRUCTURE
     1 KJX         1 TEMP              0 ****  ****    0 ROOT
