@<TRIPOS>MOLECULE
KJX
   76    79     1     0     0
SMALL
bcc


@<TRIPOS>ATOM
      1 C10        117.5290   139.3040   140.5590 c6         1 KJX      -0.002800
      2 C13        113.9630   144.2860   141.9310 c5         1 KJX      -0.074400
      3 C14        117.1050   142.0970   139.4760 c6         1 KJX       0.190300
      4 C15        112.5750   143.1660   143.7690 c3         1 KJX      -0.045700
      5 C16        115.4630   142.2410   143.6670 c3         1 KJX      -0.077100
      6 C17        118.3980   139.9440   139.4900 c2         1 KJX      -0.073400
      7 C18        117.1340   137.8950   140.0680 c6         1 KJX      -0.064400
      8 C11        115.2610   143.9160   141.1840 c5         1 KJX      -0.069400
      9 C12        115.4560   139.6670   142.0260 c6         1 KJX      -0.070400
     10 C04        114.5590   141.9860   142.4570 c5         1 KJX      -0.040000
     11 C05        115.2180   142.3930   141.1280 c5         1 KJX      -0.060700
     12 C06        116.4980   141.6400   140.7990 c6         1 KJX      -0.031700
     13 C07        116.2330   140.1260   140.7840 c6         1 KJX      -0.047700
     14 C08        113.3580   142.9630   142.4670 c5         1 KJX      -0.053700
     15 C09        114.2140   140.5020   142.3340 c6         1 KJX      -0.062400
     16 C19        118.1970   141.1760   139.0260 c2         1 KJX      -0.221200
     17 C20        118.3570   139.1950   141.8520 c3         1 KJX      -0.081100
     18 C21        119.5370   139.1120   138.9610 c6         1 KJX      -0.042200
     19 C22        118.3110   137.0440   139.6090 c6         1 KJX      -0.112400
     20 C23        111.4430   144.1920   143.6020 c3         1 KJX      -0.073400
     21 C24        119.0670   137.7430   138.4900 c6         1 KJX       0.150100
     22 C25        112.0250   141.8670   144.3590 c3         1 KJX      -0.086100
     23 C26        110.3140   143.7870   142.6600 c3         1 KJX      -0.072400
     24 C27        109.2140   144.8420   142.6200 c3         1 KJX      -0.062400
     25 C28        107.9540   144.4670   141.8350 c3         1 KJX       0.159800
     26 C29        108.2780   144.1060   140.3860 c3         1 KJX      -0.120600
     27 C30        106.9730   145.6400   141.8650 c3         1 KJX      -0.120600
     28 O01        116.0850   142.1780   138.4870 oh         1 KJX      -0.595800
     29 O02        120.2040   137.0210   138.0650 oh         1 KJX      -0.598800
     30 O03        107.3840   143.3480   142.5040 oh         1 KJX      -0.598800
     31 H2         113.2570   144.8020   141.2790 hc         1 KJX       0.038700
     32 H3         114.1700   144.9740   142.7560 hc         1 KJX       0.038700
     33 H5         117.5370   143.0970   139.6310 h1         1 KJX       0.034700
     34 H6         113.2610   143.5990   144.5070 hc         1 KJX       0.042700
     35 H7         114.9920   141.8810   144.5840 hc         1 KJX       0.031367
     36 H8         116.4270   141.7380   143.5890 hc         1 KJX       0.031367
     37 H9         115.6700   143.3030   143.8120 hc         1 KJX       0.031367
     38 H11        116.5900   137.3730   140.8580 hc         1 KJX       0.044700
     39 H12        116.4340   138.0050   139.2330 hc         1 KJX       0.044700
     40 H13        116.1420   144.2620   141.7330 hc         1 KJX       0.040700
     41 H14        115.3150   144.3620   140.1910 hc         1 KJX       0.040700
     42 H16        115.1540   138.6230   141.9040 hc         1 KJX       0.037700
     43 H17        116.1060   139.6840   142.9030 hc         1 KJX       0.037700
     44 H18        114.4840   142.1320   140.3550 hc         1 KJX       0.063700
     45 H19        117.2520   141.8640   141.5640 hc         1 KJX       0.053700
     46 H20        115.5850   139.9370   139.9160 hc         1 KJX       0.060700
     47 H22        112.6570   142.5770   141.7150 hc         1 KJX       0.047700
     48 H23        113.4720   140.3750   141.5360 hc         1 KJX       0.041200
     49 H24        113.7510   140.1170   143.2450 hc         1 KJX       0.041200
     50 H25        118.8530   141.5560   138.2460 ha         1 KJX       0.119000
     51 H27        117.8850   138.5250   142.5710 hc         1 KJX       0.035700
     52 H28        119.3580   138.8060   141.6690 hc         1 KJX       0.035700
     53 H29        118.4750   140.1690   142.3300 hc         1 KJX       0.035700
     54 H30        120.0370   139.6420   138.1460 hc         1 KJX       0.059200
     55 H31        120.2880   138.9600   139.7450 hc         1 KJX       0.059200
     56 H32        118.9960   136.8430   140.4380 hc         1 KJX       0.045700
     57 H33        117.9420   136.0730   139.2620 hc         1 KJX       0.045700
     58 H34        111.0170   144.3830   144.5940 hc         1 KJX       0.035200
     59 H35        111.8590   145.1500   143.2730 hc         1 KJX       0.035200
     60 H36        118.3690   137.8920   137.6500 h1         1 KJX       0.031700
     61 H37        111.3180   142.0790   145.1650 hc         1 KJX       0.032700
     62 H38        111.5020   141.2670   143.6120 hc         1 KJX       0.032700
     63 H39        112.8140   141.2460   144.7800 hc         1 KJX       0.032700
     64 H40        110.7110   143.6300   141.6540 hc         1 KJX       0.046700
     65 H41        109.8910   142.8300   142.9760 hc         1 KJX       0.046700
     66 H42        108.9130   145.0840   143.6460 hc         1 KJX       0.043200
     67 H43        109.6170   145.7680   142.1990 hc         1 KJX       0.043200
     68 H44        107.3620   143.8900   139.8290 hc         1 KJX       0.039867
     69 H45        108.7840   144.9280   139.8790 hc         1 KJX       0.039867
     70 H46        108.9190   143.2260   140.3230 hc         1 KJX       0.039867
     71 H47        106.0420   145.3820   141.3530 hc         1 KJX       0.039867
     72 H48        106.7270   145.9190   142.8910 hc         1 KJX       0.039867
     73 H49        107.3890   146.5170   141.3680 hc         1 KJX       0.039867
     74 H50        116.4920   142.4540   137.6600 ho         1 KJX       0.400000
     75 H51        119.9100   136.1610   137.7480 ho         1 KJX       0.403000
     76 H52        106.5980   143.0770   142.0180 ho         1 KJX       0.398000
@<TRIPOS>BOND
     1     1     6 1   
     2     1     7 1   
     3     1    13 1   
     4     1    17 1   
     5     2     8 1   
     6     2    14 1   
     7     2    31 1   
     8     2    32 1   
     9     3    12 1   
    10     3    16 1   
    11     3    28 1   
    12     3    33 1   
    13     4    14 1   
    14     4    20 1   
    15     4    22 1   
    16     4    34 1   
    17     5    10 1   
    18     5    35 1   
    19     5    36 1   
    20     5    37 1   
    21     6    16 2   
    22     6    18 1   
    23     7    19 1   
    24     7    38 1   
    25     7    39 1   
    26     8    11 1   
    27     8    40 1   
    28     8    41 1   
    29     9    13 1   
    30     9    15 1   
    31     9    42 1   
    32     9    43 1   
    33    10    11 1   
    34    10    14 1   
    35    10    15 1   
    36    11    12 1   
    37    11    44 1   
    38    12    13 1   
    39    12    45 1   
    40    13    46 1   
    41    14    47 1   
    42    15    48 1   
    43    15    49 1   
    44    16    50 1   
    45    17    51 1   
    46    17    52 1   
    47    17    53 1   
    48    18    21 1   
    49    18    54 1   
    50    18    55 1   
    51    19    21 1   
    52    19    56 1   
    53    19    57 1   
    54    20    23 1   
    55    20    58 1   
    56    20    59 1   
    57    21    29 1   
    58    21    60 1   
    59    22    61 1   
    60    22    62 1   
    61    22    63 1   
    62    23    24 1   
    63    23    64 1   
    64    23    65 1   
    65    24    25 1   
    66    24    66 1   
    67    24    67 1   
    68    25    26 1   
    69    25    27 1   
    70    25    30 1   
    71    26    68 1   
    72    26    69 1   
    73    26    70 1   
    74    27    71 1   
    75    27    72 1   
    76    27    73 1   
    77    28    74 1   
    78    29    75 1   
    79    30    76 1   
@<TRIPOS>SUBSTRUCTURE
     1 KJX         1 TEMP              0 ****  ****    0 ROOT
