@<TRIPOS>MOLECULE
KJY
   22    22     1     0     0
SMALL
No Charge or Current Charge


@<TRIPOS>ATOM
      1 C4          -1.3950     2.8090    -0.0560 c3         1 KJY      -0.059800
      2 C5           0.8730     1.7110     0.0530 ca         1 KJY      -0.206000
      3 C6           1.7160     0.5990     0.1050 ca         1 KJY       0.222100
      4 C7           1.1860    -0.7060     0.1210 ca         1 KJY      -0.302300
      5 C8           2.1110    -1.9370     0.1770 c3         1 KJY      -0.044800
      6 C           -0.2190    -0.8600     0.1020 ca         1 KJY       0.251100
      7 O           -0.7420    -2.1130     0.1930 oh         1 KJY      -0.500100
      8 C1          -1.0760     0.2600     0.0380 ca         1 KJY      -0.275600
      9 C2          -2.5760     0.0960     0.0120 c          1 KJY       0.592500
     10 C3          -0.5200     1.5600     0.0170 ca         1 KJY       0.040700
     11 O1          -3.1650    -0.8180    -0.5550 o          1 KJY      -0.516100
     12 O2           3.0590     0.8100     0.1540 oh         1 KJY      -0.531100
     13 H2          -2.1140     2.7450    -0.8810 hc         1 KJY       0.051033
     14 H4          -1.9540     2.9530     0.8750 hc         1 KJY       0.051033
     15 H3          -0.7980     3.7140    -0.2210 hc         1 KJY       0.051033
     16 H5           1.3130     2.7050     0.0420 ha         1 KJY       0.134000
     17 H9           2.2180    -2.3010     1.2060 hc         1 KJY       0.041367
     18 H8           1.7290    -2.7640    -0.4340 hc         1 KJY       0.041367
     19 H7           3.1170    -1.7320    -0.2070 hc         1 KJY       0.041367
     20 H1           0.0050    -2.7360     0.2820 ho         1 KJY       0.469000
     21 H           -3.1590     0.9030     0.5070 h4         1 KJY      -0.023800
     22 H6           3.4910    -0.0630     0.2400 ho         1 KJY       0.473000
@<TRIPOS>BOND
     1     1    10 1   
     2     1    13 1   
     3     1    14 1   
     4     1    15 1   
     5     2     3 ar  
     6     2    10 ar  
     7     2    16 1   
     8     3     4 ar  
     9     3    12 1   
    10     4     5 1   
    11     4     6 ar  
    12     5    17 1   
    13     5    18 1   
    14     5    19 1   
    15     6     7 1   
    16     6     8 ar  
    17     7    20 1   
    18     8     9 1   
    19     8    10 ar  
    20     9    11 2   
    21     9    21 1   
    22    12    22 1   
@<TRIPOS>SUBSTRUCTURE
     1 KJY         1 TEMP              0 ****  ****    0 ROOT
