@<TRIPOS>MOLECULE
KJY
   22    22     1     0     0
SMALL
abcg2


@<TRIPOS>ATOM
      1 C4          -1.3700     2.7800    -0.0210 c3         1 KJY      -0.059800
      2 C5           0.8440     1.6860     0.1060 ca         1 KJY      -0.206000
      3 C6           1.6820     0.5710     0.1520 ca         1 KJY       0.222100
      4 C7           1.1740    -0.7290     0.1240 ca         1 KJY      -0.302300
      5 C8           2.1130    -1.9050     0.1390 c3         1 KJY      -0.044800
      6 C           -0.2170    -0.8750     0.0980 ca         1 KJY       0.251100
      7 O           -0.7830    -2.0850     0.1300 oh         1 KJY      -0.500100
      8 C1          -1.0830     0.2400     0.0370 ca         1 KJY      -0.275600
      9 C2          -2.5320     0.0970    -0.0380 c          1 KJY       0.592500
     10 C3          -0.5240     1.5370     0.0410 ca         1 KJY       0.040700
     11 O1          -3.1720    -0.9340    -0.0980 o          1 KJY      -0.516100
     12 O2           2.9950     0.8250     0.2180 oh         1 KJY      -0.531100
     13 H2          -1.9700     2.8220    -0.9300 hc         1 KJY       0.051033
     14 H4          -2.0550     2.8540     0.8250 hc         1 KJY       0.051033
     15 H3          -0.7380     3.6670    -0.0060 hc         1 KJY       0.051033
     16 H5           1.2870     2.6740     0.1210 ha         1 KJY       0.134000
     17 H9           2.4900    -2.1240     1.1400 hc         1 KJY       0.041367
     18 H8           1.6660    -2.8230    -0.2440 hc         1 KJY       0.041367
     19 H7           2.9720    -1.7400    -0.5140 hc         1 KJY       0.041367
     20 H1          -0.1200    -2.7750     0.2440 ho         1 KJY       0.469000
     21 H           -3.0740     1.0560    -0.0460 h4         1 KJY      -0.023800
     22 H6           3.5170     0.0180     0.2920 ho         1 KJY       0.473000
@<TRIPOS>BOND
     1     1    10 1   
     2     1    13 1   
     3     1    14 1   
     4     1    15 1   
     5     2     3 ar  
     6     2    10 ar  
     7     2    16 1   
     8     3     4 ar  
     9     3    12 1   
    10     4     5 1   
    11     4     6 ar  
    12     5    17 1   
    13     5    18 1   
    14     5    19 1   
    15     6     7 1   
    16     6     8 ar  
    17     7    20 1   
    18     8     9 1   
    19     8    10 ar  
    20     9    11 2   
    21     9    21 1   
    22    12    22 1   
@<TRIPOS>SUBSTRUCTURE
     1 KJY         1 TEMP              0 ****  ****    0 ROOT
