@<TRIPOS>MOLECULE
KK0
   23    24     1     0     0
SMALL
abcg2


@<TRIPOS>ATOM
      1 C2          14.8960   -18.5680     7.8590 c          1 KK0       0.561000
      2 C5          15.6590   -20.8110     7.5040 c5         1 KK0      -0.085400
      3 C6          14.7850   -19.9700     8.4250 c5         1 KK0      -0.173400
      4 C7          17.1700   -20.1480     5.5650 ca         1 KK0      -0.102300
      5 C8          16.3630   -19.9540     4.4470 ca         1 KK0      -0.087500
      6 C10         18.0610   -20.8690     3.0340 ca         1 KK0       0.126000
      7 C12         18.8840   -21.0720     4.1280 ca         1 KK0      -0.104500
      8 C13         18.4320   -20.7030     5.3880 ca         1 KK0      -0.087500
      9 O1          14.1990   -17.6090     8.1370 o          1 KK0      -0.545000
     10 N3          15.9370   -18.5660     7.0000 ns         1 KK0      -0.514900
     11 C4          16.6840   -19.8050     6.9470 c5         1 KK0       0.157000
     12 C9          16.8000   -20.3090     3.1820 ca         1 KK0      -0.104500
     13 CL11        18.6130   -21.3180     1.4520 cl         1 KK0      -0.200000
     14 H17         15.0630   -21.2140     6.6840 hc         1 KK0       0.060700
     15 H16         16.1490   -21.6460     8.0020 hc         1 KK0       0.060700
     16 H18         13.7470   -20.2990     8.4760 hc         1 KK0       0.076700
     17 H19         15.1710   -19.9510     9.4480 hc         1 KK0       0.076700
     18 H20         15.3770   -19.5200     4.5580 ha         1 KK0       0.122500
     19 H22         19.8680   -21.5030     4.0070 ha         1 KK0       0.131500
     20 H23         19.0790   -20.8530     6.2440 ha         1 KK0       0.122500
     21 H2          16.3050   -17.7060     6.6200 hn         1 KK0       0.327500
     22 H14         17.5520   -19.7540     7.6160 h1         1 KK0       0.049700
     23 H21         16.1640   -20.1520     2.3210 ha         1 KK0       0.131500
@<TRIPOS>BOND
     1     1     3 1   
     2     1     9 2   
     3     1    10 1   
     4     2     3 1   
     5     2    11 1   
     6     2    14 1   
     7     2    15 1   
     8     3    16 1   
     9     3    17 1   
    10     4     5 ar  
    11     4     8 ar  
    12     4    11 1   
    13     5    12 ar  
    14     5    18 1   
    15     6     7 ar  
    16     6    12 ar  
    17     6    13 1   
    18     7     8 ar  
    19     7    19 1   
    20     8    20 1   
    21    10    11 1   
    22    10    21 1   
    23    11    22 1   
    24    12    23 1   
@<TRIPOS>SUBSTRUCTURE
     1 KK0         1 TEMP              0 ****  ****    0 ROOT
