@<TRIPOS>MOLECULE
KK0
   23    24     1     0     0
SMALL
No Charge or Current Charge


@<TRIPOS>ATOM
      1 C2          14.8520   -18.5800     7.8570 c          1 KK0       0.561000
      2 C5          15.6260   -20.7980     7.4400 c5         1 KK0      -0.085400
      3 C6          14.8610   -19.9630     8.4930 c5         1 KK0      -0.173400
      4 C7          17.1870   -20.1510     5.6140 ca         1 KK0      -0.102300
      5 C8          16.3720   -19.9030     4.4860 ca         1 KK0      -0.087500
      6 C10         18.0640   -20.8600     3.0230 ca         1 KK0       0.126000
      7 C12         18.8820   -21.1110     4.1350 ca         1 KK0      -0.104500
      8 C13         18.4460   -20.7570     5.4240 ca         1 KK0      -0.087500
      9 O1          13.9370   -17.7820     7.7440 o          1 KK0      -0.545000
     10 N3          16.0090   -18.5050     7.1320 ns         1 KK0      -0.514900
     11 C4          16.7310   -19.7730     7.0220 c5         1 KK0       0.157000
     12 C9          16.8090   -20.2570     3.1980 ca         1 KK0      -0.104500
     13 Cl11        18.6100   -21.3030     1.4110 cl         1 KK0      -0.200000
     14 H17         14.9680   -21.0640     6.6040 hc         1 KK0       0.060700
     15 H16         16.0430   -21.7280     7.8430 hc         1 KK0       0.060700
     16 H18         13.8510   -20.3120     8.7340 hc         1 KK0       0.076700
     17 H19         15.4730   -19.9180     9.4010 hc         1 KK0       0.076700
     18 H20         15.3960   -19.4370     4.6070 ha         1 KK0       0.122500
     19 H22         19.8540   -21.5790     3.9980 ha         1 KK0       0.131500
     20 H23         19.0890   -20.9570     6.2790 ha         1 KK0       0.122500
     21 H2          16.1510   -17.7000     6.5340 hn         1 KK0       0.327500
     22 H14         17.5730   -19.7960     7.7280 h1         1 KK0       0.049700
     23 H21         16.1760   -20.0640     2.3360 ha         1 KK0       0.131500
@<TRIPOS>BOND
     1     1     3 1   
     2     1     9 2   
     3     1    10 1   
     4     2     3 1   
     5     2    11 1   
     6     2    14 1   
     7     2    15 1   
     8     3    16 1   
     9     3    17 1   
    10     4     5 ar  
    11     4     8 ar  
    12     4    11 1   
    13     5    12 ar  
    14     5    18 1   
    15     6     7 ar  
    16     6    12 ar  
    17     6    13 1   
    18     7     8 ar  
    19     7    19 1   
    20     8    20 1   
    21    10    11 1   
    22    10    21 1   
    23    11    22 1   
    24    12    23 1   
@<TRIPOS>SUBSTRUCTURE
     1 KK0         1 TEMP              0 ****  ****    0 ROOT
