@<TRIPOS>MOLECULE
KK1
   52    53     1     0     0
SMALL
No Charge or Current Charge


@<TRIPOS>ATOM
      1 C01         10.5640    -1.2840     0.0970 c3         1 KK1      -0.088100
      2 C02          9.0780    -1.6920     0.1170 c3         1 KK1      -0.074400
      3 C03          8.1190    -0.4840     0.0430 c3         1 KK1      -0.075400
      4 C04          6.6300    -0.8930     0.0640 c3         1 KK1      -0.074400
      5 C05          5.6700     0.3150    -0.0110 c3         1 KK1      -0.074400
      6 C06          4.1810    -0.0940     0.0100 c3         1 KK1      -0.072400
      7 C07          3.2200     1.1140    -0.0640 c3         1 KK1      -0.093400
      8 C08          1.7360     0.7000    -0.0430 c3         1 KK1       0.232800
      9 N09          0.8690     1.8840    -0.1150 nu         1 KK1      -0.935100
     10 C10         -0.5120     1.9170    -0.1240 ca         1 KK1       0.422900
     11 C11         -1.2930     0.7590    -0.0480 ca         1 KK1      -0.342000
     12 C12         -2.7000     0.9040    -0.0610 cp         1 KK1       0.255500
     13 N13         -3.2350     2.1400    -0.1340 nb         1 KK1      -0.294000
     14 C14         -2.3870     3.1720    -0.2050 ca         1 KK1       0.413900
     15 N15         -2.9450     4.4000    -0.2790 nv         1 KK1      -1.057900
     16 N16         -1.0530     3.1360    -0.2050 nb         1 KK1      -0.335000
     17 C17         -3.6470    -0.2620     0.0160 cp         1 KK1      -0.195500
     18 C18         -4.9940    -0.0910     0.4370 ca         1 KK1      -0.038000
     19 C19         -5.8770    -1.1810     0.5090 ca         1 KK1      -0.186500
     20 C20         -5.4500    -2.4690     0.1610 ca         1 KK1       0.155100
     21 O21         -6.3640    -3.4990     0.2520 os         1 KK1      -0.340100
     22 C22         -6.0240    -4.8570    -0.0820 c3         1 KK1       0.148900
     23 C23         -4.1210    -2.6640    -0.2650 ca         1 KK1      -0.186500
     24 C24         -3.2350    -1.5750    -0.3370 ca         1 KK1      -0.038000
     25 H1          10.8060    -0.7430    -0.8260 hc         1 KK1       0.032033
     26 H2          10.8010    -0.6370     0.9500 hc         1 KK1       0.032033
     27 H3          11.2050    -2.1720     0.1510 hc         1 KK1       0.032033
     28 H4           8.8820    -2.3650    -0.7260 hc         1 KK1       0.036700
     29 H5           8.8780    -2.2600     1.0340 hc         1 KK1       0.036700
     30 H6           8.3200     0.1880     0.8870 hc         1 KK1       0.037700
     31 H7           8.3240     0.0830    -0.8740 hc         1 KK1       0.037700
     32 H8           6.4290    -1.5650    -0.7800 hc         1 KK1       0.037700
     33 H9           6.4250    -1.4600     0.9810 hc         1 KK1       0.037700
     34 H10          5.8710     0.9870     0.8330 hc         1 KK1       0.039200
     35 H11          5.8750     0.8820    -0.9270 hc         1 KK1       0.039200
     36 H12          3.9800    -0.7660    -0.8340 hc         1 KK1       0.040700
     37 H13          3.9760    -0.6610     0.9270 hc         1 KK1       0.040700
     38 H14          3.4210     1.7840     0.7810 hc         1 KK1       0.048200
     39 H15          3.4250     1.6790    -0.9820 hc         1 KK1       0.048200
     40 H16          1.5330     0.0360    -0.8940 h1         1 KK1       0.042200
     41 H17          1.5290     0.1410     0.8810 h1         1 KK1       0.042200
     42 H18          1.3200     2.7970    -0.1760 hn         1 KK1       0.499000
     43 H19         -0.8290    -0.2160     0.0350 ha         1 KK1       0.128000
     44 H20         -3.9320     4.4940    -0.0530 hn         1 KK1       0.486000
     45 H21         -2.3550     5.2100    -0.1060 hn         1 KK1       0.486000
     46 H22         -5.3610     0.8940     0.7210 ha         1 KK1       0.123500
     47 H23         -6.9020    -1.0250     0.8380 ha         1 KK1       0.122000
     48 H24         -5.2120    -5.2250     0.5580 h1         1 KK1       0.041033
     49 H25         -6.8920    -5.5120     0.0610 h1         1 KK1       0.041033
     50 H26         -5.7090    -4.9340    -1.1310 h1         1 KK1       0.041033
     51 H27         -3.7580    -3.6470    -0.5480 ha         1 KK1       0.122000
     52 H28         -2.2220    -1.7580    -0.6860 ha         1 KK1       0.123500
@<TRIPOS>BOND
     1     1     2 1   
     2     1    25 1   
     3     1    26 1   
     4     1    27 1   
     5     2     3 1   
     6     2    28 1   
     7     2    29 1   
     8     3     4 1   
     9     3    30 1   
    10     3    31 1   
    11     4     5 1   
    12     4    32 1   
    13     4    33 1   
    14     5     6 1   
    15     5    34 1   
    16     5    35 1   
    17     6     7 1   
    18     6    36 1   
    19     6    37 1   
    20     7     8 1   
    21     7    38 1   
    22     7    39 1   
    23     8     9 1   
    24     8    40 1   
    25     8    41 1   
    26     9    10 1   
    27     9    42 1   
    28    10    11 ar  
    29    10    16 ar  
    30    11    12 ar  
    31    11    43 1   
    32    12    13 ar  
    33    12    17 1   
    34    13    14 ar  
    35    14    15 1   
    36    14    16 ar  
    37    15    44 1   
    38    15    45 1   
    39    17    18 ar  
    40    17    24 ar  
    41    18    19 ar  
    42    18    46 1   
    43    19    20 ar  
    44    19    47 1   
    45    20    21 1   
    46    20    23 ar  
    47    21    22 1   
    48    22    48 1   
    49    22    49 1   
    50    22    50 1   
    51    23    24 ar  
    52    23    51 1   
    53    24    52 1   
@<TRIPOS>SUBSTRUCTURE
     1 KK1         1 TEMP              0 ****  ****    0 ROOT
