@<TRIPOS>MOLECULE
KK1
   52    53     1     0     0
SMALL
bcc


@<TRIPOS>ATOM
      1 C01         10.2700    -1.5160    -0.2220 c3         1 KK1      -0.088100
      2 C02          8.8190    -1.7970     0.1440 c3         1 KK1      -0.074400
      3 C03          7.8980    -0.6170    -0.1410 c3         1 KK1      -0.075400
      4 C04          6.4430    -0.8850     0.2200 c3         1 KK1      -0.074400
      5 C05          5.5260     0.2990    -0.0600 c3         1 KK1      -0.074400
      6 C06          4.0690     0.0190     0.2830 c3         1 KK1      -0.072400
      7 C07          3.1560     1.2080     0.0140 c3         1 KK1      -0.093400
      8 C08          1.7010     0.8840     0.3080 c3         1 KK1       0.232800
      9 N09          0.8600     2.0370     0.0800 nu         1 KK1      -0.879900
     10 C10         -0.4830     2.0130     0.0310 ca         1 KK1       0.751200
     11 C11         -1.2170     0.8140     0.0780 ca         1 KK1      -0.490600
     12 C12         -2.5920     0.9230    -0.0300 cp         1 KK1       0.583800
     13 N13         -3.2040     2.1040    -0.1400 nb         1 KK1      -0.820000
     14 C14         -2.4200     3.1820    -0.1480 ca         1 KK1       0.939900
     15 N15         -3.0360     4.3800    -0.2850 nv         1 KK1      -0.947500
     16 N16         -1.0930     3.1960    -0.0740 nb         1 KK1      -0.861000
     17 C17         -3.4680    -0.2670    -0.0170 cp         1 KK1      -0.195500
     18 C18         -4.8320    -0.1370     0.2610 ca         1 KK1      -0.056000
     19 C19         -5.6690    -1.2330     0.2760 ca         1 KK1      -0.204500
     20 C20         -5.1680    -2.5080    -0.0010 ca         1 KK1       0.155100
     21 O21         -6.0530    -3.5170     0.0270 os         1 KK1      -0.316900
     22 C22         -5.6030    -4.8240    -0.2730 c3         1 KK1       0.125700
     23 C23         -3.8130    -2.6550    -0.2890 ca         1 KK1      -0.204500
     24 C24         -2.9840    -1.5430    -0.2910 ca         1 KK1      -0.056000
     25 H1          10.3720    -1.2850    -1.2840 hc         1 KK1       0.032033
     26 H2          10.6570    -0.6620     0.3380 hc         1 KK1       0.032033
     27 H3          10.9120    -2.3700    -0.0060 hc         1 KK1       0.032033
     28 H4           8.4640    -2.6740    -0.4060 hc         1 KK1       0.036700
     29 H5           8.7530    -2.0580     1.2040 hc         1 KK1       0.036700
     30 H6           8.2540     0.2610     0.4100 hc         1 KK1       0.037700
     31 H7           7.9660    -0.3540    -1.2030 hc         1 KK1       0.037700
     32 H8           6.0870    -1.7600    -0.3360 hc         1 KK1       0.037700
     33 H9           6.3750    -1.1530     1.2800 hc         1 KK1       0.037700
     34 H10          5.8740     1.1700     0.5050 hc         1 KK1       0.039200
     35 H11          5.6020     0.5740    -1.1180 hc         1 KK1       0.039200
     36 H12          3.7210    -0.8450    -0.2940 hc         1 KK1       0.040700
     37 H13          3.9900    -0.2680     1.3370 hc         1 KK1       0.040700
     38 H14          3.4760     2.0590     0.6250 hc         1 KK1       0.048200
     39 H15          3.2510     1.5190    -1.0310 hc         1 KK1       0.048200
     40 H16          1.3830     0.0680    -0.3460 h1         1 KK1       0.042200
     41 H17          1.6010     0.5210     1.3380 h1         1 KK1       0.042200
     42 H18          1.2800     2.9500     0.1660 hn         1 KK1       0.443800
     43 H19         -0.7300    -0.1390     0.2180 ha         1 KK1       0.146000
     44 H20         -4.0270     4.4200    -0.1200 hn         1 KK1       0.430800
     45 H21         -2.5140     5.2100    -0.0640 hn         1 KK1       0.430800
     46 H22         -5.2390     0.8430     0.4730 ha         1 KK1       0.141500
     47 H23         -6.7220    -1.1110     0.5000 ha         1 KK1       0.140000
     48 H24         -4.8390    -5.1650     0.4300 h1         1 KK1       0.041033
     49 H25         -6.4700    -5.4750    -0.1910 h1         1 KK1       0.041033
     50 H26         -5.2040    -4.8930    -1.2880 h1         1 KK1       0.041033
     51 H27         -3.3850    -3.6210    -0.5220 ha         1 KK1       0.140000
     52 H28         -1.9400    -1.6930    -0.5360 ha         1 KK1       0.141500
@<TRIPOS>BOND
     1     1     2 1   
     2     1    25 1   
     3     1    26 1   
     4     1    27 1   
     5     2     3 1   
     6     2    28 1   
     7     2    29 1   
     8     3     4 1   
     9     3    30 1   
    10     3    31 1   
    11     4     5 1   
    12     4    32 1   
    13     4    33 1   
    14     5     6 1   
    15     5    34 1   
    16     5    35 1   
    17     6     7 1   
    18     6    36 1   
    19     6    37 1   
    20     7     8 1   
    21     7    38 1   
    22     7    39 1   
    23     8     9 1   
    24     8    40 1   
    25     8    41 1   
    26     9    10 1   
    27     9    42 1   
    28    10    11 ar  
    29    10    16 ar  
    30    11    12 ar  
    31    11    43 1   
    32    12    13 ar  
    33    12    17 1   
    34    13    14 ar  
    35    14    15 1   
    36    14    16 ar  
    37    15    44 1   
    38    15    45 1   
    39    17    18 ar  
    40    17    24 ar  
    41    18    19 ar  
    42    18    46 1   
    43    19    20 ar  
    44    19    47 1   
    45    20    21 1   
    46    20    23 ar  
    47    21    22 1   
    48    22    48 1   
    49    22    49 1   
    50    22    50 1   
    51    23    24 ar  
    52    23    51 1   
    53    24    52 1   
@<TRIPOS>SUBSTRUCTURE
     1 KK1         1 TEMP              0 ****  ****    0 ROOT
