@<TRIPOS>MOLECULE
KK2
   38    40     1     0     0
SMALL
abcg2


@<TRIPOS>ATOM
      1 C1           5.0530    -0.0400     0.3900 c6         1 KK2       0.183300
      2 C2           6.0930     0.7900    -0.3360 c6         1 KK2       0.140100
      3 O1           5.9890     2.1570    -0.0090 os         1 KK2      -0.442000
      4 C3           4.7170     2.6480    -0.3570 c6         1 KK2       0.140100
      5 C4           3.6010     1.9050     0.3590 c6         1 KK2       0.183300
      6 N2           3.7200     0.4780     0.1240 nh         1 KK2      -0.777300
      7 C6           2.6490    -0.3490     0.0670 ca         1 KK2       0.430900
      8 C5           1.3190     0.1270     0.0780 ca         1 KK2      -0.329000
      9 N1           2.8940    -1.6550    -0.0130 nb         1 KK2      -0.330000
     10 C7           1.8510    -2.4750    -0.1080 ca         1 KK2       0.416900
     11 N4           2.1230    -3.7930    -0.2470 nv         1 KK2      -1.055900
     12 N3           0.5670    -2.1230    -0.1070 nb         1 KK2      -0.288000
     13 C8           0.3160    -0.8170    -0.0060 cp         1 KK2       0.236500
     14 C9          -1.1190    -0.4350     0.0090 cp         1 KK2      -0.121500
     15 C10         -2.0920    -1.3960    -0.2620 ca         1 KK2      -0.085500
     16 C11         -3.4380    -1.0720    -0.2600 ca         1 KK2      -0.072000
     17 C12         -3.8380     0.2290     0.0180 ca         1 KK2      -0.186300
     18 C13         -5.2900     0.5840     0.0720 c3         1 KK2       0.356300
     19 F1          -6.0430    -0.2340    -0.6700 f          1 KK2      -0.114000
     20 F2          -5.7660     0.5170     1.3260 f          1 KK2      -0.114000
     21 F3          -5.5220     1.8300    -0.3580 f          1 KK2      -0.114000
     22 C14         -2.8810     1.1970     0.2980 ca         1 KK2      -0.072000
     23 C15         -1.5370     0.8660     0.2920 ca         1 KK2      -0.085500
     24 H1           5.1180    -1.0730     0.0610 h1         1 KK2       0.060450
     25 H2           5.2480    -0.0230     1.4700 h1         1 KK2       0.060450
     26 H3           7.0900     0.4560    -0.0490 h1         1 KK2       0.055700
     27 H4           5.9840     0.6440    -1.4200 h1         1 KK2       0.055700
     28 H5           4.6810     3.7040    -0.0830 h1         1 KK2       0.055700
     29 H6           4.5590     2.5740    -1.4420 h1         1 KK2       0.055700
     30 H7           3.6300     2.1190     1.4350 h1         1 KK2       0.060450
     31 H8           2.6590     2.2860    -0.0280 h1         1 KK2       0.060450
     32 H9           1.0950     1.1760     0.1630 ha         1 KK2       0.130000
     33 H10          3.0520    -4.1100    -0.0300 hn         1 KK2       0.489000
     34 H11          1.3770    -4.4470    -0.0850 hn         1 KK2       0.489000
     35 H12         -1.7900    -2.4100    -0.4810 ha         1 KK2       0.132000
     36 H13         -4.1630    -1.8440    -0.4770 ha         1 KK2       0.130000
     37 H14         -3.1660     2.2160     0.5250 ha         1 KK2       0.130000
     38 H15         -0.8220     1.6440     0.5180 ha         1 KK2       0.132000
@<TRIPOS>BOND
     1     1     2 1   
     2     1     6 1   
     3     1    24 1   
     4     1    25 1   
     5     2     3 1   
     6     2    26 1   
     7     2    27 1   
     8     3     4 1   
     9     4     5 1   
    10     4    28 1   
    11     4    29 1   
    12     5     6 1   
    13     5    30 1   
    14     5    31 1   
    15     6     7 1   
    16     7     8 ar  
    17     7     9 ar  
    18     8    13 ar  
    19     8    32 1   
    20     9    10 ar  
    21    10    11 1   
    22    10    12 ar  
    23    11    33 1   
    24    11    34 1   
    25    12    13 ar  
    26    13    14 1   
    27    14    15 ar  
    28    14    23 ar  
    29    15    16 ar  
    30    15    35 1   
    31    16    17 ar  
    32    16    36 1   
    33    17    18 1   
    34    17    22 ar  
    35    18    19 1   
    36    18    20 1   
    37    18    21 1   
    38    22    23 ar  
    39    22    37 1   
    40    23    38 1   
@<TRIPOS>SUBSTRUCTURE
     1 KK2         1 TEMP              0 ****  ****    0 ROOT
