@<TRIPOS>MOLECULE
KK2
   38    40     1     0     0
SMALL
No Charge or Current Charge


@<TRIPOS>ATOM
      1 C1           5.0690     0.0400     0.5810 c6         1 KK2       0.183300
      2 C2           6.2900     0.8700     0.0860 c6         1 KK2       0.140100
      3 O1           6.0260     2.2870     0.1830 os         1 KK2      -0.442000
      4 C3           4.8940     2.6880    -0.6210 c6         1 KK2       0.140100
      5 C4           3.5970     1.9540    -0.1670 c6         1 KK2       0.183300
      6 N2           3.7700     0.4640    -0.0580 nh         1 KK2      -0.777300
      7 C6           2.6530    -0.4090    -0.0770 ca         1 KK2       0.430900
      8 C5           1.3280     0.0570    -0.0140 ca         1 KK2      -0.329000
      9 N1           2.9140    -1.7250    -0.1610 nb         1 KK2      -0.330000
     10 C7           1.8560    -2.5350    -0.1910 ca         1 KK2       0.416900
     11 N4           2.1260    -3.8570    -0.2800 nv         1 KK2      -1.055900
     12 N3           0.5640    -2.1990    -0.1410 nb         1 KK2      -0.288000
     13 C8           0.2730    -0.8880    -0.0420 cp         1 KK2       0.236500
     14 C9          -1.1800    -0.5000     0.0240 cp         1 KK2      -0.121500
     15 C10         -2.1990    -1.3710    -0.4470 ca         1 KK2      -0.085500
     16 C11         -3.5560    -1.0120    -0.3870 ca         1 KK2      -0.072000
     17 C12         -3.9470     0.2330     0.1460 ca         1 KK2      -0.186300
     18 C13         -5.4290     0.6210     0.2220 c3         1 KK2       0.356300
     19 F1          -6.1590     0.0650    -0.7720 f          1 KK2      -0.114000
     20 F2          -5.9820     0.2190     1.3890 f          1 KK2      -0.114000
     21 F3          -5.6170     1.9580     0.1360 f          1 KK2      -0.114000
     22 C14         -2.9500     1.1030     0.6320 ca         1 KK2      -0.072000
     23 C15         -1.5930     0.7430     0.5700 ca         1 KK2      -0.085500
     24 H1           5.2890    -1.0180     0.3750 h1         1 KK2       0.060450
     25 H2           4.9950     0.1440     1.6730 h1         1 KK2       0.060450
     26 H3           7.1750     0.6250     0.6900 h1         1 KK2       0.055700
     27 H4           6.5140     0.6150    -0.9600 h1         1 KK2       0.055700
     28 H5           4.7560     3.7750    -0.5330 h1         1 KK2       0.055700
     29 H6           5.1020     2.4580    -1.6760 h1         1 KK2       0.055700
     30 H7           3.2800     2.3660     0.8030 h1         1 KK2       0.060450
     31 H8           2.8140     2.1970    -0.8990 h1         1 KK2       0.060450
     32 H9           1.1110     1.1150     0.0510 ha         1 KK2       0.130000
     33 H10          3.0770    -4.1640    -0.0940 hn         1 KK2       0.489000
     34 H11          1.3810    -4.5180    -0.0740 hn         1 KK2       0.489000
     35 H12         -1.9390    -2.3370    -0.8730 ha         1 KK2       0.132000
     36 H13         -4.3030    -1.7120    -0.7570 ha         1 KK2       0.130000
     37 H14         -3.2220     2.0630     1.0680 ha         1 KK2       0.130000
     38 H15         -0.8600     1.4380     0.9710 ha         1 KK2       0.132000
@<TRIPOS>BOND
     1     1     2 1   
     2     1     6 1   
     3     1    24 1   
     4     1    25 1   
     5     2     3 1   
     6     2    26 1   
     7     2    27 1   
     8     3     4 1   
     9     4     5 1   
    10     4    28 1   
    11     4    29 1   
    12     5     6 1   
    13     5    30 1   
    14     5    31 1   
    15     6     7 1   
    16     7     8 ar  
    17     7     9 ar  
    18     8    13 ar  
    19     8    32 1   
    20     9    10 ar  
    21    10    11 1   
    22    10    12 ar  
    23    11    33 1   
    24    11    34 1   
    25    12    13 ar  
    26    13    14 1   
    27    14    15 ar  
    28    14    23 ar  
    29    15    16 ar  
    30    15    35 1   
    31    16    17 ar  
    32    16    36 1   
    33    17    18 1   
    34    17    22 ar  
    35    18    19 1   
    36    18    20 1   
    37    18    21 1   
    38    22    23 ar  
    39    22    37 1   
    40    23    38 1   
@<TRIPOS>SUBSTRUCTURE
     1 KK2         1 TEMP              0 ****  ****    0 ROOT
