@<TRIPOS>MOLECULE
KK3
   43    45     1     0     0
SMALL
abcg2


@<TRIPOS>ATOM
      1 C1          -4.8210    -0.4760     0.5130 c6         1 KK3       0.223800
      2 C3          -5.6500     0.2670    -0.5260 c6         1 KK3      -0.094400
      3 C7          -5.6830     1.7770    -0.2780 c6         1 KK3      -0.057700
      4 C8          -6.5840     2.1450     0.8990 c3         1 KK3      -0.089100
      5 C9          -4.2550     2.2960    -0.0990 c6         1 KK3      -0.094400
      6 C10         -3.4630     1.4870     0.9230 c6         1 KK3       0.223800
      7 N2          -3.4780     0.0760     0.5890 nh         1 KK3      -0.781300
      8 C4          -2.3870    -0.6440     0.2560 ca         1 KK3       0.441900
      9 C5          -1.0730    -0.1200     0.2980 ca         1 KK3      -0.333000
     10 N3          -2.5790    -1.9110    -0.1110 nb         1 KK3      -0.337000
     11 C2          -1.5130    -2.6410    -0.4180 ca         1 KK3       0.416900
     12 N4          -1.7370    -3.9420    -0.7210 nv         1 KK3      -1.056900
     13 N1          -0.2460    -2.2340    -0.4290 nb         1 KK3      -0.287000
     14 C6          -0.0480    -0.9650    -0.0700 cp         1 KK3       0.230500
     15 C11          1.3620    -0.5090    -0.0620 cp         1 KK3      -0.118500
     16 C12          2.3870    -1.4390     0.0850 ca         1 KK3      -0.087500
     17 C13          3.7130    -1.0400     0.1120 ca         1 KK3      -0.071000
     18 C14          4.0370     0.3040    -0.0190 ca         1 KK3      -0.189300
     19 C15          5.4630     0.7520    -0.0440 c3         1 KK3       0.357300
     20 F1           6.2880    -0.1400     0.5200 f          1 KK3      -0.114333
     21 F2           5.9000     0.9400    -1.2970 f          1 KK3      -0.114333
     22 F3           5.6370     1.9100     0.6020 f          1 KK3      -0.114333
     23 C16          3.0230     1.2410    -0.1830 ca         1 KK3      -0.071000
     24 C17          1.7010     0.8360    -0.2030 ca         1 KK3      -0.087500
     25 H1          -5.2820    -0.4020     1.5040 h1         1 KK3       0.057700
     26 H2          -4.7560    -1.5320     0.2690 h1         1 KK3       0.057700
     27 H3          -5.2310     0.0640    -1.5160 hc         1 KK3       0.049950
     28 H4          -6.6650    -0.1400    -0.5300 hc         1 KK3       0.049950
     29 H5          -6.1020     2.2560    -1.1680 hc         1 KK3       0.049700
     30 H6          -6.2550     1.7060     1.8430 hc         1 KK3       0.033700
     31 H7          -6.6160     3.2270     1.0410 hc         1 KK3       0.033700
     32 H8          -7.6060     1.8060     0.7260 hc         1 KK3       0.033700
     33 H9          -3.7240     2.2580    -1.0540 hc         1 KK3       0.049950
     34 H10         -4.2660     3.3430     0.2110 hc         1 KK3       0.049950
     35 H11         -2.4490     1.8680     0.9820 h1         1 KK3       0.057700
     36 H12         -3.8850     1.6120     1.9260 h1         1 KK3       0.057700
     37 H13         -0.8600     0.8810     0.6310 ha         1 KK3       0.130000
     38 H14         -2.6740    -4.2220    -0.9440 hn         1 KK3       0.487500
     39 H15         -1.0020    -4.4530    -1.1750 hn         1 KK3       0.487500
     40 H16          2.1450    -2.4870     0.1860 ha         1 KK3       0.131500
     41 H17          4.4810    -1.7900     0.2370 ha         1 KK3       0.129000
     42 H18          3.2530     2.2920    -0.2990 ha         1 KK3       0.129000
     43 H19          0.9320     1.5810    -0.3550 ha         1 KK3       0.131500
@<TRIPOS>BOND
     1     1     2 1   
     2     1     7 1   
     3     1    25 1   
     4     1    26 1   
     5     2     3 1   
     6     2    27 1   
     7     2    28 1   
     8     3     4 1   
     9     3     5 1   
    10     3    29 1   
    11     4    30 1   
    12     4    31 1   
    13     4    32 1   
    14     5     6 1   
    15     5    33 1   
    16     5    34 1   
    17     6     7 1   
    18     6    35 1   
    19     6    36 1   
    20     7     8 1   
    21     8     9 ar  
    22     8    10 ar  
    23     9    14 ar  
    24     9    37 1   
    25    10    11 ar  
    26    11    12 1   
    27    11    13 ar  
    28    12    38 1   
    29    12    39 1   
    30    13    14 ar  
    31    14    15 1   
    32    15    16 ar  
    33    15    24 ar  
    34    16    17 ar  
    35    16    40 1   
    36    17    18 ar  
    37    17    41 1   
    38    18    19 1   
    39    18    23 ar  
    40    19    20 1   
    41    19    21 1   
    42    19    22 1   
    43    23    24 ar  
    44    23    42 1   
    45    24    43 1   
@<TRIPOS>SUBSTRUCTURE
     1 KK3         1 TEMP              0 ****  ****    0 ROOT
