@<TRIPOS>MOLECULE
KK3
   43    45     1     0     0
SMALL
No Charge or Current Charge


@<TRIPOS>ATOM
      1 C1          -4.7530    -0.4370     0.5700 c6         1 KK3       0.223800
      2 C3          -6.0720     0.1810     0.0390 c6         1 KK3      -0.094400
      3 C7          -6.0560     1.7300     0.0810 c6         1 KK3      -0.057700
      4 C8          -6.1370     2.2900     1.5310 c3         1 KK3      -0.089100
      5 C9          -4.8060     2.2380    -0.6820 c6         1 KK3      -0.094400
      6 C10         -3.4920     1.6090    -0.1520 c6         1 KK3       0.223800
      7 N2          -3.5610     0.1170    -0.1440 nh         1 KK3      -0.781300
      8 C4          -2.3940    -0.6650    -0.3010 ca         1 KK3       0.441900
      9 C5          -1.1060    -0.1480    -0.0850 ca         1 KK3      -0.333000
     10 N3          -2.5720    -1.9460    -0.6660 nb         1 KK3      -0.337000
     11 C2          -1.4650    -2.6750    -0.8060 ca         1 KK3       0.416900
     12 N4          -1.6490    -3.9620    -1.1730 nv         1 KK3      -1.056900
     13 N1          -0.1990    -2.2840    -0.6310 nb         1 KK3      -0.287000
     14 C6           0.0070    -1.0040    -0.2690 cp         1 KK3       0.230500
     15 C11          1.4290    -0.5570    -0.0600 cp         1 KK3      -0.118500
     16 C12          2.4690    -1.4930     0.1870 ca         1 KK3      -0.087500
     17 C13          3.7980    -1.0790     0.3830 ca         1 KK3      -0.071000
     18 C14          4.1380     0.2880     0.3400 ca         1 KK3      -0.189300
     19 C15          5.5890     0.7410     0.5410 c3         1 KK3       0.357300
     20 F1           6.2790    -0.0900     1.3560 f          1 KK3      -0.114333
     21 F2           6.2570     0.7850    -0.6340 f          1 KK3      -0.114333
     22 F3           5.6720     1.9750     1.0900 f          1 KK3      -0.114333
     23 C16          3.1210     1.2290     0.0790 ca         1 KK3      -0.071000
     24 C17          1.7920     0.8140    -0.1150 ca         1 KK3      -0.087500
     25 H1          -4.6660    -0.2420     1.6490 h1         1 KK3       0.057700
     26 H2          -4.8200    -1.5280     0.4520 h1         1 KK3       0.057700
     27 H3          -6.2290    -0.1530    -0.9960 hc         1 KK3       0.049950
     28 H4          -6.9220    -0.2070     0.6170 hc         1 KK3       0.049950
     29 H5          -6.9520     2.1010    -0.4350 hc         1 KK3       0.049700
     30 H6          -5.2820     1.9830     2.1440 hc         1 KK3       0.033700
     31 H7          -6.1640     3.3860     1.5280 hc         1 KK3       0.033700
     32 H8          -7.0470     1.9420     2.0350 hc         1 KK3       0.033700
     33 H9          -4.9100     1.9960    -1.7490 hc         1 KK3       0.049950
     34 H10         -4.7430     3.3330    -0.6230 hc         1 KK3       0.049950
     35 H11         -2.6730     1.9530    -0.8010 h1         1 KK3       0.057700
     36 H12         -3.2830     1.9840     0.8610 h1         1 KK3       0.057700
     37 H13         -0.9670     0.8730     0.2440 ha         1 KK3       0.130000
     38 H14         -2.5610    -4.2280    -1.5350 hn         1 KK3       0.487500
     39 H15         -0.8480    -4.4860    -1.5170 hn         1 KK3       0.487500
     40 H16          2.2480    -2.5570     0.2370 ha         1 KK3       0.131500
     41 H17          4.5630    -1.8320     0.5670 ha         1 KK3       0.129000
     42 H18          3.3550     2.2910     0.0190 ha         1 KK3       0.129000
     43 H19          1.0440     1.5720    -0.3280 ha         1 KK3       0.131500
@<TRIPOS>BOND
     1     1     2 1   
     2     1     7 1   
     3     1    25 1   
     4     1    26 1   
     5     2     3 1   
     6     2    27 1   
     7     2    28 1   
     8     3     4 1   
     9     3     5 1   
    10     3    29 1   
    11     4    30 1   
    12     4    31 1   
    13     4    32 1   
    14     5     6 1   
    15     5    33 1   
    16     5    34 1   
    17     6     7 1   
    18     6    35 1   
    19     6    36 1   
    20     7     8 1   
    21     8     9 ar  
    22     8    10 ar  
    23     9    14 ar  
    24     9    37 1   
    25    10    11 ar  
    26    11    12 1   
    27    11    13 ar  
    28    12    38 1   
    29    12    39 1   
    30    13    14 ar  
    31    14    15 1   
    32    15    16 ar  
    33    15    24 ar  
    34    16    17 ar  
    35    16    40 1   
    36    17    18 ar  
    37    17    41 1   
    38    18    19 1   
    39    18    23 ar  
    40    19    20 1   
    41    19    21 1   
    42    19    22 1   
    43    23    24 ar  
    44    23    42 1   
    45    24    43 1   
@<TRIPOS>SUBSTRUCTURE
     1 KK3         1 TEMP              0 ****  ****    0 ROOT
