@<TRIPOS>MOLECULE
KK4
   65    70     1     0     0
SMALL
abcg2


@<TRIPOS>ATOM
      1 O3         -15.2670     4.3890    12.2590 o          1 KK4      -0.506000
      2 C29        -14.7170     4.7770    11.2570 c          1 KK4       0.655100
      3 O2         -15.2540     5.6790    10.3850 os         1 KK4      -0.237100
      4 N3         -14.3340     5.9290     9.3280 nc         1 KK4      -0.311700
      5 N4         -13.4940     4.4650    10.7350 ns         1 KK4      -0.557900
      6 C28        -13.3040     5.1770     9.5770 cd         1 KK4       0.438200
      7 C27        -12.1040     5.2030     8.7340 cf         1 KK4      -0.146800
      8 C30        -11.8830     6.5180     8.0310 c3         1 KK4      -0.049900
      9 C1         -11.2730     4.1430     8.6470 ce         1 KK4       0.040600
     10 C22        -10.0580     4.1300     7.7920 ca         1 KK4      -0.140800
     11 C23        -10.1890     4.4540     6.4320 ca         1 KK4      -0.061000
     12 C24         -9.1270     4.3890     5.5480 ca         1 KK4      -0.146000
     13 C25         -7.8780     3.9870     6.0170 ca         1 KK4      -0.062000
     14 C26         -7.7190     3.6470     7.3480 ca         1 KK4      -0.147000
     15 C21         -8.7920     3.7010     8.2420 ca         1 KK4       0.167100
     16 O1          -8.4650     3.3200     9.5100 os         1 KK4      -0.350100
     17 C20         -9.4240     3.3740    10.5830 c3         1 KK4       0.214900
     18 C3         -10.5890     2.4670    10.3280 ca         1 KK4      -0.122300
     19 C2         -11.5100     2.8560     9.3480 ca         1 KK4      -0.071800
     20 C19        -12.5710     2.0150     9.0330 ca         1 KK4      -0.087000
     21 C18        -12.7410     0.8170     9.7170 ca         1 KK4      -0.078000
     22 C5         -11.8540     0.4420    10.7200 ca         1 KK4      -0.103300
     23 C4         -10.7700     1.2710    11.0080 ca         1 KK4      -0.086000
     24 C6         -12.0330    -0.8230    11.5330 c3         1 KK4       0.129900
     25 N1         -13.1320    -1.6590    11.1000 na         1 KK4      -0.196600
     26 C14        -14.4010    -1.7400    11.6340 cc         1 KK4       0.428800
     27 C15        -14.8490    -0.9300    12.8030 c3         1 KK4      -0.098700
     28 C16        -15.0800     0.5610    12.4940 c3         1 KK4      -0.071400
     29 C17        -16.1250     0.8030    11.4100 c3         1 KK4      -0.091100
     30 N2         -15.1580    -2.5970    10.9800 nd         1 KK4      -0.575100
     31 C8         -14.3670    -3.1070     9.9590 ca         1 KK4       0.068400
     32 C7         -13.0880    -2.5220    10.0200 ca         1 KK4      -0.076200
     33 C12        -12.0750    -2.8280     9.1160 ca         1 KK4      -0.120000
     34 C11        -12.3890    -3.7610     8.1370 ca         1 KK4      -0.090000
     35 C10        -13.6600    -4.3560     8.0690 ca         1 KK4      -0.138000
     36 C9         -14.6770    -4.0500     8.9680 ca         1 KK4      -0.012300
     37 C13        -16.0360    -4.6840     8.8930 c3         1 KK4      -0.040800
     38 H1         -12.8450     3.8250    11.1670 hn         1 KK4       0.482000
     39 H2         -12.0920     7.3450     8.7090 hc         1 KK4       0.059367
     40 H3         -10.8600     6.6020     7.6760 hc         1 KK4       0.059367
     41 H4         -12.5500     6.6250     7.1720 hc         1 KK4       0.059367
     42 H5         -11.1670     4.7400     6.0690 ha         1 KK4       0.117000
     43 H6          -9.2720     4.6400     4.5060 ha         1 KK4       0.122000
     44 H7          -7.0300     3.9330     5.3460 ha         1 KK4       0.120000
     45 H8          -6.7580     3.3280     7.7300 ha         1 KK4       0.131000
     46 H9          -8.8640     3.0640    11.4620 h1         1 KK4       0.066200
     47 H10         -9.7500     4.4090    10.7180 h1         1 KK4       0.066200
     48 H11        -13.2750     2.3040     8.2620 ha         1 KK4       0.131000
     49 H12        -13.5790     0.1810     9.4670 ha         1 KK4       0.140000
     50 H13        -10.0620     0.9860    11.7790 ha         1 KK4       0.120000
     51 H14        -11.1170    -1.4160    11.4930 h1         1 KK4       0.070200
     52 H15        -12.1900    -0.5650    12.5800 h1         1 KK4       0.070200
     53 H16        -15.7800    -1.3760    13.1530 hc         1 KK4       0.064700
     54 H17        -14.1210    -1.0220    13.6140 hc         1 KK4       0.064700
     55 H18        -14.1380     1.0320    12.2060 hc         1 KK4       0.041700
     56 H19        -15.3920     1.0440    13.4230 hc         1 KK4       0.041700
     57 H20        -16.2710     1.8730    11.2480 hc         1 KK4       0.039700
     58 H21        -15.8230     0.3590    10.4600 hc         1 KK4       0.039700
     59 H22        -17.0870     0.3670    11.6890 hc         1 KK4       0.039700
     60 H23        -11.1000    -2.3630     9.1660 ha         1 KK4       0.119000
     61 H24        -11.6390    -4.0370     7.4060 ha         1 KK4       0.113000
     62 H25        -13.8580    -5.0780     7.2850 ha         1 KK4       0.113000
     63 H26        -16.2710    -5.2190     9.8160 hc         1 KK4       0.047367
     64 H27        -16.8150    -3.9290     8.7580 hc         1 KK4       0.047367
     65 H28        -16.0900    -5.3880     8.0630 hc         1 KK4       0.047367
@<TRIPOS>BOND
     1     1     2 2   
     2     2     3 1   
     3     2     5 1   
     4     3     4 1   
     5     4     6 2   
     6     5     6 1   
     7     5    38 1   
     8     6     7 1   
     9     7     8 1   
    10     7     9 2   
    11     8    39 1   
    12     8    40 1   
    13     8    41 1   
    14     9    10 1   
    15     9    19 1   
    16    10    11 ar  
    17    10    15 ar  
    18    11    12 ar  
    19    11    42 1   
    20    12    13 ar  
    21    12    43 1   
    22    13    14 ar  
    23    13    44 1   
    24    14    15 ar  
    25    14    45 1   
    26    15    16 1   
    27    16    17 1   
    28    17    18 1   
    29    17    46 1   
    30    17    47 1   
    31    18    19 ar  
    32    18    23 ar  
    33    19    20 ar  
    34    20    21 ar  
    35    20    48 1   
    36    21    22 ar  
    37    21    49 1   
    38    22    23 ar  
    39    22    24 1   
    40    23    50 1   
    41    24    25 1   
    42    24    51 1   
    43    24    52 1   
    44    25    26 1   
    45    25    32 1   
    46    26    27 1   
    47    26    30 2   
    48    27    28 1   
    49    27    53 1   
    50    27    54 1   
    51    28    29 1   
    52    28    55 1   
    53    28    56 1   
    54    29    57 1   
    55    29    58 1   
    56    29    59 1   
    57    30    31 1   
    58    31    32 ar  
    59    31    36 ar  
    60    32    33 ar  
    61    33    34 ar  
    62    33    60 1   
    63    34    35 ar  
    64    34    61 1   
    65    35    36 ar  
    66    35    62 1   
    67    36    37 1   
    68    37    63 1   
    69    37    64 1   
    70    37    65 1   
@<TRIPOS>SUBSTRUCTURE
     1 KK4         1 TEMP              0 ****  ****    0 ROOT
