@<TRIPOS>MOLECULE
KK4
   65    70     1     0     0
SMALL
No Charge or Current Charge


@<TRIPOS>ATOM
      1 O3         -15.0940     4.2070    12.3460 o          1 KK4      -0.506000
      2 C29        -14.6610     4.7090    11.3240 c          1 KK4       0.655100
      3 O2         -15.2770     5.6160    10.4950 os         1 KK4      -0.237100
      4 N3         -14.3720     5.9510     9.3920 nc         1 KK4      -0.311700
      5 N4         -13.4690     4.5140    10.7690 ns         1 KK4      -0.557900
      6 C28        -13.2870     5.2340     9.6540 cd         1 KK4       0.438200
      7 C27        -12.1070     5.2470     8.7710 cf         1 KK4      -0.146800
      8 C30        -11.8190     6.5870     8.0920 c3         1 KK4      -0.049900
      9 C1         -11.2700     4.1720     8.6050 ce         1 KK4       0.040600
     10 C22        -10.0430     4.1570     7.7500 ca         1 KK4      -0.140800
     11 C23        -10.1910     4.4810     6.3840 ca         1 KK4      -0.061000
     12 C24         -9.0900     4.4650     5.5130 ca         1 KK4      -0.146000
     13 C25         -7.8220     4.1120     5.9930 ca         1 KK4      -0.062000
     14 C26         -7.6620     3.7680     7.3430 ca         1 KK4      -0.147000
     15 C21         -8.7530     3.7800     8.2310 ca         1 KK4       0.167100
     16 O1          -8.4670     3.4100     9.5360 os         1 KK4      -0.350100
     17 C20         -9.4170     3.4340    10.6160 c3         1 KK4       0.214900
     18 C3         -10.5710     2.4970    10.2910 ca         1 KK4      -0.122300
     19 C2         -11.4720     2.8730     9.2880 ca         1 KK4      -0.071800
     20 C19        -12.5460     2.0310     8.9530 ca         1 KK4      -0.087000
     21 C18        -12.7230     0.8140     9.6290 ca         1 KK4      -0.078000
     22 C5         -11.8280     0.4300    10.6550 ca         1 KK4      -0.103300
     23 C4         -10.7510     1.2800    10.9740 ca         1 KK4      -0.086000
     24 C6         -11.9880    -0.8760    11.4390 c3         1 KK4       0.129900
     25 N1         -13.1520    -1.7060    11.0720 na         1 KK4      -0.196600
     26 C14        -14.4290    -1.7420    11.6400 cc         1 KK4       0.428800
     27 C15        -14.8880    -0.8900    12.7990 c3         1 KK4      -0.098700
     28 C16        -15.1350     0.5960    12.4430 c3         1 KK4      -0.071400
     29 C17        -16.1970     0.8070    11.3450 c3         1 KK4      -0.091100
     30 N2         -15.2100    -2.6430    11.0100 nd         1 KK4      -0.575100
     31 C8         -14.3880    -3.1670    10.0100 ca         1 KK4       0.068400
     32 C7         -13.1430    -2.6010    10.0430 ca         1 KK4      -0.076200
     33 C12        -12.1300    -2.9370     9.1330 ca         1 KK4      -0.120000
     34 C11        -12.4280    -3.9110     8.1590 ca         1 KK4      -0.090000
     35 C10        -13.7080    -4.5100     8.1170 ca         1 KK4      -0.138000
     36 C9         -14.7100    -4.1420     9.0470 ca         1 KK4      -0.012300
     37 C13        -16.0920    -4.7790     9.0010 c3         1 KK4      -0.040800
     38 H1         -12.8060     3.8660    11.1650 hn         1 KK4       0.482000
     39 H2         -12.1830     7.4330     8.6870 hc         1 KK4       0.059367
     40 H3         -10.7450     6.7550     7.9480 hc         1 KK4       0.059367
     41 H4         -12.3020     6.6450     7.1090 hc         1 KK4       0.059367
     42 H5         -11.1720     4.7370     5.9890 ha         1 KK4       0.117000
     43 H6          -9.2230     4.7220     4.4640 ha         1 KK4       0.122000
     44 H7          -6.9680     4.0970     5.3190 ha         1 KK4       0.120000
     45 H8          -6.6790     3.4850     7.7110 ha         1 KK4       0.131000
     46 H9          -8.9330     3.1110    11.5470 h1         1 KK4       0.066200
     47 H10         -9.7900     4.4530    10.7820 h1         1 KK4       0.066200
     48 H11        -13.2420     2.3220     8.1690 ha         1 KK4       0.131000
     49 H12        -13.5610     0.1800     9.3480 ha         1 KK4       0.140000
     50 H13        -10.0510     0.9920    11.7570 ha         1 KK4       0.120000
     51 H14        -11.0790    -1.4770    11.3140 h1         1 KK4       0.070200
     52 H15        -12.0580    -0.6350    12.5070 h1         1 KK4       0.070200
     53 H16        -15.8130    -1.3110    13.2120 hc         1 KK4       0.064700
     54 H17        -14.1480    -0.9460    13.6050 hc         1 KK4       0.064700
     55 H18        -14.1940     1.0620    12.1290 hc         1 KK4       0.041700
     56 H19        -15.4550     1.1270    13.3490 hc         1 KK4       0.041700
     57 H20        -16.3550     1.8770    11.1660 hc         1 KK4       0.039700
     58 H21        -15.8830     0.3500    10.3990 hc         1 KK4       0.039700
     59 H22        -17.1550     0.3650    11.6420 hc         1 KK4       0.039700
     60 H23        -11.1500    -2.4670     9.1690 ha         1 KK4       0.119000
     61 H24        -11.6690    -4.2010     7.4340 ha         1 KK4       0.113000
     62 H25        -13.9210    -5.2590     7.3580 ha         1 KK4       0.113000
     63 H26        -16.3200    -5.2850     9.9460 hc         1 KK4       0.047367
     64 H27        -16.8660    -4.0210     8.8310 hc         1 KK4       0.047367
     65 H28        -16.1720    -5.5210     8.1980 hc         1 KK4       0.047367
@<TRIPOS>BOND
     1     1     2 2   
     2     2     3 1   
     3     2     5 1   
     4     3     4 1   
     5     4     6 2   
     6     5     6 1   
     7     5    38 1   
     8     6     7 1   
     9     7     8 1   
    10     7     9 2   
    11     8    39 1   
    12     8    40 1   
    13     8    41 1   
    14     9    10 1   
    15     9    19 1   
    16    10    11 ar  
    17    10    15 ar  
    18    11    12 ar  
    19    11    42 1   
    20    12    13 ar  
    21    12    43 1   
    22    13    14 ar  
    23    13    44 1   
    24    14    15 ar  
    25    14    45 1   
    26    15    16 1   
    27    16    17 1   
    28    17    18 1   
    29    17    46 1   
    30    17    47 1   
    31    18    19 ar  
    32    18    23 ar  
    33    19    20 ar  
    34    20    21 ar  
    35    20    48 1   
    36    21    22 ar  
    37    21    49 1   
    38    22    23 ar  
    39    22    24 1   
    40    23    50 1   
    41    24    25 1   
    42    24    51 1   
    43    24    52 1   
    44    25    26 1   
    45    25    32 1   
    46    26    27 1   
    47    26    30 2   
    48    27    28 1   
    49    27    53 1   
    50    27    54 1   
    51    28    29 1   
    52    28    55 1   
    53    28    56 1   
    54    29    57 1   
    55    29    58 1   
    56    29    59 1   
    57    30    31 1   
    58    31    32 ar  
    59    31    36 ar  
    60    32    33 ar  
    61    33    34 ar  
    62    33    60 1   
    63    34    35 ar  
    64    34    61 1   
    65    35    36 ar  
    66    35    62 1   
    67    36    37 1   
    68    37    63 1   
    69    37    64 1   
    70    37    65 1   
@<TRIPOS>SUBSTRUCTURE
     1 KK4         1 TEMP              0 ****  ****    0 ROOT
