@<TRIPOS>MOLECULE
KK6
   70    75     1     0     0
SMALL
No Charge or Current Charge


@<TRIPOS>ATOM
      1 F1           4.6370   -12.3770   -15.3830 f          1 KK6      -0.157000
      2 C29          4.2340   -12.0140   -14.1430 ca         1 KK6       0.217000
      3 C30          3.0950   -11.2080   -13.9630 ca         1 KK6      -0.058000
      4 C31          2.3340   -10.7580   -15.0940 cg         1 KK6       0.326000
      5 N6           1.7070   -10.3860   -16.0060 n1         1 KK6      -0.432000
      6 C23          2.6980   -10.8430   -12.6620 ca         1 KK6      -0.033000
      7 C28          4.9720   -12.4470   -13.0320 ca         1 KK6      -0.157000
      8 C27          4.5750   -12.0830   -11.7350 ca         1 KK6      -0.047000
      9 C26          3.4260   -11.2840   -11.5330 ca         1 KK6      -0.063000
     10 N5           3.0340   -10.8890   -10.1910 n          1 KK6      -0.066000
     11 C17          2.7710    -9.5230    -9.8750 c          1 KK6       0.622000
     12 O3           2.7380    -8.6560   -10.7420 o          1 KK6      -0.566000
     13 C20          2.9880   -11.9220    -9.1720 ca         1 KK6       0.001000
     14 C22          2.9460   -13.3030    -9.4930 ca         1 KK6      -0.150000
     15 C25          2.8690   -14.2770    -8.4830 ca         1 KK6      -0.073000
     16 C24          2.8140   -13.8900    -7.1380 ca         1 KK6      -0.135000
     17 C21          2.8190   -12.5280    -6.8060 ca         1 KK6      -0.070000
     18 C19          2.8930   -11.5490    -7.8160 ca         1 KK6      -0.151300
     19 C18          2.8910   -10.0850    -7.4180 c6         1 KK6       0.164300
     20 N4           2.5540    -9.1720    -8.5250 n          1 KK6      -0.416800
     21 C16          2.2180    -7.7740    -8.1620 c3         1 KK6       0.121000
     22 C14          0.6970    -7.4480    -8.1880 c6         1 KK6      -0.082700
     23 C11         -0.1340    -8.3520    -7.2350 c6         1 KK6      -0.080900
     24 C7          -1.6340    -7.9680    -7.2550 c6         1 KK6       0.211300
     25 C12          0.4370    -5.9570    -7.8440 c6         1 KK6      -0.080900
     26 C8          -1.0750    -5.6220    -7.8490 c6         1 KK6       0.211300
     27 N1          -1.8160    -6.5290    -6.9280 nh         1 KK6      -0.777300
     28 C2          -3.0370    -6.1120    -6.3520 ca         1 KK6       0.387900
     29 N2          -3.8600    -5.4060    -7.1540 nb         1 KK6      -0.270000
     30 C9          -5.0390    -5.0280    -6.6280 ca         1 KK6       0.153900
     31 N3          -5.4820    -5.2840    -5.3810 nb         1 KK6      -0.197000
     32 C3          -4.6680    -5.9820    -4.5630 ca         1 KK6       0.056000
     33 C1          -3.4020    -6.4230    -5.0160 ca         1 KK6      -0.151000
     34 C5          -5.0700    -6.2730    -3.2490 ca         1 KK6      -0.189000
     35 C10         -4.2250    -6.9920    -2.3740 ca         1 KK6       0.156100
     36 O2          -4.6040    -7.2900    -1.0740 os         1 KK6      -0.317100
     37 C15         -5.8760    -6.8960    -0.5280 c3         1 KK6       0.142900
     38 C6          -2.9540    -7.4200    -2.8210 ca         1 KK6       0.107100
     39 C4          -2.5460    -7.1300    -4.1410 ca         1 KK6      -0.151000
     40 O1          -2.1390    -8.1170    -1.9420 os         1 KK6      -0.318100
     41 C13         -0.8350    -8.5990    -2.3120 c3         1 KK6       0.144900
     42 H1           1.8070   -10.2320   -12.5280 ha         1 KK6       0.141000
     43 H2           5.8570   -13.0620   -13.1790 ha         1 KK6       0.143000
     44 H3           5.1720   -12.4090   -10.8850 ha         1 KK6       0.133000
     45 H4           2.9420   -13.6420   -10.5240 ha         1 KK6       0.127000
     46 H5           2.8420   -15.3320    -8.7470 ha         1 KK6       0.119000
     47 H6           2.7530   -14.6420    -6.3550 ha         1 KK6       0.121000
     48 H7           2.7620   -12.2310    -5.7600 ha         1 KK6       0.114000
     49 H8           3.8870    -9.8220    -7.0350 h1         1 KK6       0.052200
     50 H9           2.1760    -9.9380    -6.5960 h1         1 KK6       0.052200
     51 H10          2.5950    -7.5710    -7.1500 h1         1 KK6       0.056700
     52 H11          2.7420    -7.0820    -8.8340 h1         1 KK6       0.056700
     53 H12          0.3610    -7.6290    -9.2200 hc         1 KK6       0.069700
     54 H13         -0.0340    -9.4070    -7.5240 hc         1 KK6       0.049200
     55 H14          0.2500    -8.2680    -6.2090 hc         1 KK6       0.049200
     56 H15         -2.0500    -8.1820    -8.2510 h1         1 KK6       0.052700
     57 H16         -2.1730    -8.6020    -6.5360 h1         1 KK6       0.052700
     58 H17          0.8540    -5.7240    -6.8540 hc         1 KK6       0.049200
     59 H18          0.9550    -5.3070    -8.5620 hc         1 KK6       0.049200
     60 H19         -1.2040    -4.5740    -7.5410 h1         1 KK6       0.052700
     61 H20         -1.4670    -5.7170    -8.8730 h1         1 KK6       0.052700
     62 H21         -5.7050    -4.4610    -7.2760 h5         1 KK6       0.044100
     63 H22         -6.0470    -5.9290    -2.9230 ha         1 KK6       0.142000
     64 H23         -5.9640    -7.2360     0.5110 h1         1 KK6       0.045700
     65 H24         -5.9840    -5.8040    -0.5380 h1         1 KK6       0.045700
     66 H25         -6.7010    -7.3390    -1.1010 h1         1 KK6       0.045700
     67 H26         -1.5670    -7.4380    -4.4920 ha         1 KK6       0.129000
     68 H27         -0.3710    -9.1250    -1.4680 h1         1 KK6       0.040367
     69 H28         -0.9030    -9.3010    -3.1540 h1         1 KK6       0.040367
     70 H29         -0.1780    -7.7680    -2.5970 h1         1 KK6       0.040367
@<TRIPOS>BOND
     1     1     2 1   
     2     2     3 ar  
     3     2     7 ar  
     4     3     4 1   
     5     3     6 ar  
     6     4     5 3   
     7     6     9 ar  
     8     6    42 1   
     9     7     8 ar  
    10     7    43 1   
    11     8     9 ar  
    12     8    44 1   
    13     9    10 1   
    14    10    11 1   
    15    10    13 1   
    16    11    12 2   
    17    11    20 1   
    18    13    14 ar  
    19    13    18 ar  
    20    14    15 ar  
    21    14    45 1   
    22    15    16 ar  
    23    15    46 1   
    24    16    17 ar  
    25    16    47 1   
    26    17    18 ar  
    27    17    48 1   
    28    18    19 1   
    29    19    20 1   
    30    19    49 1   
    31    19    50 1   
    32    20    21 1   
    33    21    22 1   
    34    21    51 1   
    35    21    52 1   
    36    22    23 1   
    37    22    25 1   
    38    22    53 1   
    39    23    24 1   
    40    23    54 1   
    41    23    55 1   
    42    24    27 1   
    43    24    56 1   
    44    24    57 1   
    45    25    26 1   
    46    25    58 1   
    47    25    59 1   
    48    26    27 1   
    49    26    60 1   
    50    26    61 1   
    51    27    28 1   
    52    28    29 ar  
    53    28    33 ar  
    54    29    30 ar  
    55    30    31 ar  
    56    30    62 1   
    57    31    32 ar  
    58    32    33 ar  
    59    32    34 ar  
    60    33    39 ar  
    61    34    35 ar  
    62    34    63 1   
    63    35    36 1   
    64    35    38 ar  
    65    36    37 1   
    66    37    64 1   
    67    37    65 1   
    68    37    66 1   
    69    38    39 ar  
    70    38    40 1   
    71    39    67 1   
    72    40    41 1   
    73    41    68 1   
    74    41    69 1   
    75    41    70 1   
@<TRIPOS>SUBSTRUCTURE
     1 KK6         1 TEMP              0 ****  ****    0 ROOT
