@<TRIPOS>MOLECULE
KK6
   70    75     1     0     0
SMALL
bcc


@<TRIPOS>ATOM
      1 F1           3.6700   -12.6550   -15.0210 f          1 KK6      -0.121900
      2 C29          3.5470   -12.1800   -13.7850 ca         1 KK6       0.181900
      3 C30          2.2720   -11.8660   -13.3240 ca         1 KK6      -0.058000
      4 C31          1.1420   -12.0670   -14.1670 cg         1 KK6       0.236800
      5 N6           0.2190   -12.2300   -14.8350 n1         1 KK6      -0.342800
      6 C23          2.1170   -11.3660   -12.0340 ca         1 KK6      -0.051000
      7 C28          4.6610   -12.0100   -12.9940 ca         1 KK6      -0.175000
      8 C27          4.4930   -11.5140   -11.7090 ca         1 KK6      -0.065000
      9 C26          3.2300   -11.1910   -11.2300 ca         1 KK6       0.029600
     10 N5           3.0890   -10.7150    -9.9010 n          1 KK6      -0.318200
     11 C17          2.8620    -9.3470    -9.7480 c          1 KK6       0.831500
     12 O3           2.7350    -8.6320   -10.7280 o          1 KK6      -0.641500
     13 C20          2.8580   -11.6290    -8.8610 ca         1 KK6       0.093600
     14 C22          2.6020   -12.9770    -9.0970 ca         1 KK6      -0.168000
     15 C25          2.3580   -13.8250    -8.0250 ca         1 KK6      -0.091000
     16 C24          2.3540   -13.3420    -6.7250 ca         1 KK6      -0.153000
     17 C21          2.6150   -11.9980    -6.4990 ca         1 KK6      -0.088000
     18 C19          2.8830   -11.1430    -7.5570 ca         1 KK6      -0.151300
     19 C18          3.2510    -9.7090    -7.3610 c6         1 KK6       0.164300
     20 N4           2.7860    -8.9030    -8.4760 n          1 KK6      -0.483800
     21 C16          2.4820    -7.5020    -8.2340 c3         1 KK6       0.121000
     22 C14          0.9890    -7.1980    -8.2570 c6         1 KK6      -0.082700
     23 C11          0.1920    -8.0750    -7.2960 c6         1 KK6      -0.080900
     24 C7          -1.2700    -7.6690    -7.3090 c6         1 KK6       0.211300
     25 C12          0.7460    -5.7280    -7.9280 c6         1 KK6      -0.080900
     26 C8          -0.7380    -5.3850    -7.8930 c6         1 KK6       0.211300
     27 N1          -1.4170    -6.2600    -6.9500 nh         1 KK6      -0.777300
     28 C2          -2.5630    -5.8220    -6.3480 ca         1 KK6       0.716200
     29 N2          -3.1860    -4.7760    -6.8590 nb         1 KK6      -0.796000
     30 C9          -4.3420    -4.3990    -6.3010 ca         1 KK6       0.679900
     31 N3          -4.9680    -4.9680    -5.3090 nb         1 KK6      -0.723000
     32 C3          -4.3180    -6.0000    -4.7120 ca         1 KK6       0.449600
     33 C1          -3.0630    -6.4460    -5.1610 ca         1 KK6      -0.281600
     34 C5          -4.9070    -6.6100    -3.5820 ca         1 KK6      -0.272300
     35 C10         -4.2440    -7.5920    -2.8940 ca         1 KK6       0.156100
     36 O2          -4.7120    -8.2340    -1.8210 os         1 KK6      -0.293900
     37 C15         -6.0070    -7.9040    -1.3520 c3         1 KK6       0.119700
     38 C6          -2.9260    -7.9810    -3.2980 ca         1 KK6       0.107100
     39 C4          -2.3570    -7.4080    -4.4020 ca         1 KK6      -0.169000
     40 O1          -2.3450    -8.9000    -2.5130 os         1 KK6      -0.294900
     41 C13         -1.0470    -9.3420    -2.8560 c3         1 KK6       0.121700
     42 H1           1.1300   -11.1260   -11.6640 ha         1 KK6       0.159000
     43 H2           5.6430   -12.2600   -13.3720 ha         1 KK6       0.161000
     44 H3           5.3560   -11.3760   -11.0720 ha         1 KK6       0.151000
     45 H4           2.5880   -13.3740   -10.1020 ha         1 KK6       0.145000
     46 H5           2.1620   -14.8720    -8.2170 ha         1 KK6       0.137000
     47 H6           2.1540   -14.0050    -5.8940 ha         1 KK6       0.139000
     48 H7           2.6240   -11.6060    -5.4890 ha         1 KK6       0.132000
     49 H8           4.3380    -9.6070    -7.2430 h1         1 KK6       0.052200
     50 H9           2.7980    -9.3300    -6.4470 h1         1 KK6       0.052200
     51 H10          2.8930    -7.2460    -7.2550 h1         1 KK6       0.056700
     52 H11          3.0010    -6.8760    -8.9620 h1         1 KK6       0.056700
     53 H12          0.6150    -7.3850    -9.2710 hc         1 KK6       0.069700
     54 H13          0.2690    -9.1270    -7.5800 hc         1 KK6       0.049200
     55 H14          0.5880    -7.9810    -6.2790 hc         1 KK6       0.049200
     56 H15         -1.6770    -7.8190    -8.3190 h1         1 KK6       0.052700
     57 H16         -1.8550    -8.2990    -6.6440 h1         1 KK6       0.052700
     58 H17          1.1900    -5.4910    -6.9560 hc         1 KK6       0.049200
     59 H18          1.2350    -5.0870    -8.6670 hc         1 KK6       0.049200
     60 H19         -0.8720    -4.3510    -7.5840 h1         1 KK6       0.052700
     61 H20         -1.1680    -5.4820    -8.8980 h1         1 KK6       0.052700
     62 H21         -4.8200    -3.5350    -6.7520 h5         1 KK6       0.044100
     63 H22         -5.8850    -6.2620    -3.2780 ha         1 KK6       0.160000
     64 H23         -6.1970    -8.5480    -0.4970 h1         1 KK6       0.045700
     65 H24         -6.0680    -6.8610    -1.0320 h1         1 KK6       0.045700
     66 H25         -6.7700    -8.0880    -2.1120 h1         1 KK6       0.045700
     67 H26         -1.3450    -7.6640    -4.6820 ha         1 KK6       0.147000
     68 H27         -0.7740   -10.0960    -2.1220 h1         1 KK6       0.040367
     69 H28         -1.0210    -9.7910    -3.8530 h1         1 KK6       0.040367
     70 H29         -0.3160    -8.5300    -2.8150 h1         1 KK6       0.040367
@<TRIPOS>BOND
     1     1     2 1   
     2     2     3 ar  
     3     2     7 ar  
     4     3     4 1   
     5     3     6 ar  
     6     4     5 3   
     7     6     9 ar  
     8     6    42 1   
     9     7     8 ar  
    10     7    43 1   
    11     8     9 ar  
    12     8    44 1   
    13     9    10 1   
    14    10    11 1   
    15    10    13 1   
    16    11    12 2   
    17    11    20 1   
    18    13    14 ar  
    19    13    18 ar  
    20    14    15 ar  
    21    14    45 1   
    22    15    16 ar  
    23    15    46 1   
    24    16    17 ar  
    25    16    47 1   
    26    17    18 ar  
    27    17    48 1   
    28    18    19 1   
    29    19    20 1   
    30    19    49 1   
    31    19    50 1   
    32    20    21 1   
    33    21    22 1   
    34    21    51 1   
    35    21    52 1   
    36    22    23 1   
    37    22    25 1   
    38    22    53 1   
    39    23    24 1   
    40    23    54 1   
    41    23    55 1   
    42    24    27 1   
    43    24    56 1   
    44    24    57 1   
    45    25    26 1   
    46    25    58 1   
    47    25    59 1   
    48    26    27 1   
    49    26    60 1   
    50    26    61 1   
    51    27    28 1   
    52    28    29 ar  
    53    28    33 ar  
    54    29    30 ar  
    55    30    31 ar  
    56    30    62 1   
    57    31    32 ar  
    58    32    33 ar  
    59    32    34 ar  
    60    33    39 ar  
    61    34    35 ar  
    62    34    63 1   
    63    35    36 1   
    64    35    38 ar  
    65    36    37 1   
    66    37    64 1   
    67    37    65 1   
    68    37    66 1   
    69    38    39 ar  
    70    38    40 1   
    71    39    67 1   
    72    40    41 1   
    73    41    68 1   
    74    41    69 1   
    75    41    70 1   
@<TRIPOS>SUBSTRUCTURE
     1 KK6         1 TEMP              0 ****  ****    0 ROOT
