@<TRIPOS>MOLECULE
KK7
   34    36     1     0     0
SMALL
No Charge or Current Charge


@<TRIPOS>ATOM
      1 C01          5.5160     0.8990     0.0600 ca         1 KK7       0.339900
      2 C02          6.3410    -0.2320     0.1670 ca         1 KK7      -0.143000
      3 N03          4.1640     0.8220     0.0300 nb         1 KK7      -0.683000
      4 C04          3.5730    -0.4110     0.1080 ca         1 KK7       0.283500
      5 C05          4.3490    -1.5890     0.2180 ca         1 KK7      -0.099000
      6 C06          5.7510    -1.5030     0.2480 ca         1 KK7      -0.080000
      7 C07          2.0460    -0.5140     0.0750 c          1 KK7       0.512600
      8 N08          1.3930     0.7110    -0.0350 ns         1 KK7      -0.130000
      9 C09          0.0190     1.0710    -0.1120 ca         1 KK7      -0.015000
     10 C10         -1.0340     0.1320    -0.2020 ca         1 KK7      -0.097000
     11 C11         -2.3840     0.5500    -0.2590 ca         1 KK7      -0.101500
     12 C12         -2.6610     1.9340    -0.2890 ca         1 KK7      -0.131000
     13 C13         -1.6220     2.8720    -0.2060 ca         1 KK7      -0.086000
     14 C14         -0.2900     2.4420    -0.1120 ca         1 KK7      -0.154000
     15 O15          1.4560    -1.5910     0.1470 o          1 KK7      -0.570100
     16 C16         -3.4530    -0.4560    -0.3990 cc         1 KK7       0.433000
     17 N17         -4.7420    -0.3650     0.0930 na         1 KK7      -0.362000
     18 C18         -5.3640    -1.5310    -0.2880 cc         1 KK7       0.365400
     19 N19         -4.5060    -2.2950    -0.9420 nd         1 KK7      -0.354000
     20 N20         -3.3080    -1.6270    -1.0030 nd         1 KK7      -0.346000
     21 C21         -5.3310     0.6850     0.9430 c3         1 KK7       0.062900
     22 H1           5.9480     1.8970    -0.0050 h4         1 KK7       0.024100
     23 H2           7.4210    -0.1170     0.1870 ha         1 KK7       0.128000
     24 H3           3.8650    -2.5600     0.2790 ha         1 KK7       0.152000
     25 H4           6.3640    -2.3980     0.3320 ha         1 KK7       0.127000
     26 H5           2.0290     1.4990    -0.0670 hn         1 KK7       0.183000
     27 H6          -0.8230    -0.9330    -0.2200 ha         1 KK7       0.168000
     28 H7          -3.6800     2.2960    -0.4000 ha         1 KK7       0.113000
     29 H8          -1.8480     3.9370    -0.2250 ha         1 KK7       0.115000
     30 H9           0.5060     3.1810    -0.0490 ha         1 KK7       0.116000
     31 H10         -6.3940    -1.7630    -0.0480 h5         1 KK7       0.060100
     32 H11         -5.7490     1.4810     0.3140 h1         1 KK7       0.056367
     33 H12         -6.1350     0.2590     1.5570 h1         1 KK7       0.056367
     34 H13         -4.5660     1.1060     1.6070 h1         1 KK7       0.056367
@<TRIPOS>BOND
     1     1     2 ar  
     2     1     3 ar  
     3     1    22 1   
     4     2     6 ar  
     5     2    23 1   
     6     3     4 ar  
     7     4     5 ar  
     8     4     7 1   
     9     5     6 ar  
    10     5    24 1   
    11     6    25 1   
    12     7     8 1   
    13     7    15 2   
    14     8     9 1   
    15     8    26 1   
    16     9    10 ar  
    17     9    14 ar  
    18    10    11 ar  
    19    10    27 1   
    20    11    12 ar  
    21    11    16 1   
    22    12    13 ar  
    23    12    28 1   
    24    13    14 ar  
    25    13    29 1   
    26    14    30 1   
    27    16    17 1   
    28    16    20 2   
    29    17    18 1   
    30    17    21 1   
    31    18    19 2   
    32    18    31 1   
    33    19    20 1   
    34    21    32 1   
    35    21    33 1   
    36    21    34 1   
@<TRIPOS>SUBSTRUCTURE
     1 KK7         1 TEMP              0 ****  ****    0 ROOT
