@<TRIPOS>MOLECULE
KK7
   34    36     1     0     0
SMALL
bcc


@<TRIPOS>ATOM
      1 C01          5.3350     0.8800     0.2530 ca         1 KK7       0.405200
      2 C02          6.1600    -0.2370     0.2940 ca         1 KK7      -0.226300
      3 N03          4.0190     0.7930     0.1460 nb         1 KK7      -0.683000
      4 C04          3.4640    -0.4120     0.0750 ca         1 KK7       0.348800
      5 C05          4.1990    -1.5870     0.1070 ca         1 KK7      -0.182300
      6 C06          5.5780    -1.4920     0.2200 ca         1 KK7      -0.098000
      7 C07          1.9670    -0.4740    -0.0470 c          1 KK7       0.579600
      8 N08          1.3840     0.7430    -0.0630 ns         1 KK7      -0.456100
      9 C09          0.0370     1.0790    -0.1720 ca         1 KK7       0.077600
     10 C10         -0.9990     0.1480    -0.2200 ca         1 KK7      -0.115000
     11 C11         -2.3210     0.5810    -0.3240 ca         1 KK7      -0.101500
     12 C12         -2.6170     1.9390    -0.3890 ca         1 KK7      -0.149000
     13 C13         -1.5810     2.8610    -0.3330 ca         1 KK7      -0.104000
     14 C14         -0.2690     2.4420    -0.2240 ca         1 KK7      -0.172000
     15 O15          1.3850    -1.5420    -0.1230 o          1 KK7      -0.570100
     16 C16         -3.3650    -0.4430    -0.4000 cc         1 KK7       0.433000
     17 N17         -4.5960    -0.3770     0.1710 na         1 KK7      -0.332700
     18 C18         -5.1850    -1.5480    -0.1560 cc         1 KK7       0.365400
     19 N19         -4.3830    -2.2810    -0.8710 nd         1 KK7      -0.354000
     20 N20         -3.2350    -1.5860    -1.0250 nd         1 KK7      -0.346000
     21 C21         -5.1750     0.6560     1.0050 c3         1 KK7       0.033600
     22 H1           5.7540     1.8780     0.3090 h4         1 KK7       0.024100
     23 H2           7.2310    -0.1170     0.3810 ha         1 KK7       0.146000
     24 H3           3.7090    -2.5480     0.0450 ha         1 KK7       0.170000
     25 H4           6.1890    -2.3840     0.2500 ha         1 KK7       0.145000
     26 H5           2.0370     1.5150     0.0040 hn         1 KK7       0.349500
     27 H6          -0.7970    -0.9090    -0.1690 ha         1 KK7       0.186000
     28 H7          -3.6340     2.2860    -0.5090 ha         1 KK7       0.131000
     29 H8          -1.7990     3.9190    -0.3840 ha         1 KK7       0.133000
     30 H9           0.5270     3.1750    -0.1820 ha         1 KK7       0.134000
     31 H10         -6.1840    -1.8100     0.1570 h5         1 KK7       0.060100
     32 H11         -5.6230     1.4420     0.4010 h1         1 KK7       0.056367
     33 H12         -5.9460     0.2100     1.6270 h1         1 KK7       0.056367
     34 H13         -4.4150     1.0860     1.6510 h1         1 KK7       0.056367
@<TRIPOS>BOND
     1     1     2 ar  
     2     1     3 ar  
     3     1    22 1   
     4     2     6 ar  
     5     2    23 1   
     6     3     4 ar  
     7     4     5 ar  
     8     4     7 1   
     9     5     6 ar  
    10     5    24 1   
    11     6    25 1   
    12     7     8 1   
    13     7    15 2   
    14     8     9 1   
    15     8    26 1   
    16     9    10 ar  
    17     9    14 ar  
    18    10    11 ar  
    19    10    27 1   
    20    11    12 ar  
    21    11    16 1   
    22    12    13 ar  
    23    12    28 1   
    24    13    14 ar  
    25    13    29 1   
    26    14    30 1   
    27    16    17 1   
    28    16    20 2   
    29    17    18 1   
    30    17    21 1   
    31    18    19 2   
    32    18    31 1   
    33    19    20 1   
    34    21    32 1   
    35    21    33 1   
    36    21    34 1   
@<TRIPOS>SUBSTRUCTURE
     1 KK7         1 TEMP              0 ****  ****    0 ROOT
