@<TRIPOS>MOLECULE
KK8
   47    51     1     0     0
SMALL
No Charge or Current Charge


@<TRIPOS>ATOM
      1 N01         -0.0410    -1.4580    -0.1900 ns         1 KK8      -0.129000
      2 C02         -1.4600    -1.4280    -0.3000 ca         1 KK8      -0.018000
      3 C03         -2.2120    -0.2400    -0.4410 ca         1 KK8      -0.097000
      4 C04         -3.6230    -0.2730    -0.5270 ca         1 KK8      -0.100500
      5 C05         -4.2700    -1.5280    -0.5330 ca         1 KK8      -0.127000
      6 C06         -3.5310    -2.7130    -0.3980 ca         1 KK8      -0.088000
      7 C07         -2.1340    -2.6610    -0.2760 ca         1 KK8      -0.153000
      8 C08         -5.9170     2.5600    -0.6580 cc         1 KK8       0.370400
      9 N09         -4.8670     3.0390    -1.3060 nd         1 KK8      -0.355000
     10 N10         -3.8990     2.0600    -1.3350 nd         1 KK8      -0.347000
     11 C11         -4.3710     0.9830    -0.7190 cc         1 KK8       0.439000
     12 N12         -5.6450     1.2710    -0.2720 na         1 KK8      -0.337000
     13 C13          0.9200    -0.4560    -0.0930 c          1 KK8       0.511600
     14 C14          2.3600    -0.9730    -0.0120 ca         1 KK8       0.286500
     15 N15          2.5880    -2.3210    -0.0390 nb         1 KK8      -0.680000
     16 C16          3.4270    -0.0510     0.0880 ca         1 KK8      -0.096000
     17 C17          4.7680    -0.4990     0.1600 cp         1 KK8       0.007000
     18 C18          4.9640    -1.8990     0.1270 ca         1 KK8      -0.140000
     19 C19          3.8640    -2.7620     0.0290 ca         1 KK8       0.341900
     20 O20          0.6480     0.7430    -0.0670 o          1 KK8      -0.569100
     21 C21         -6.4840     0.4530     0.6190 cx         1 KK8       0.011300
     22 C22          5.9180     0.4550     0.2660 cp         1 KK8      -0.106000
     23 C23          5.7890     1.7070     0.9260 ca         1 KK8       0.358900
     24 N24          6.7930     2.6070     1.0540 nb         1 KK8      -0.661000
     25 C25          7.9930     2.2920     0.5160 ca         1 KK8       0.346900
     26 C26          8.2300     1.0840    -0.1580 ca         1 KK8      -0.165000
     27 C27          7.1870     0.1530    -0.2870 ca         1 KK8      -0.057000
     28 C28         -7.8640     0.8160     1.1180 cx         1 KK8      -0.130900
     29 C29         -7.6860    -0.3470     0.1760 cx         1 KK8      -0.130900
     30 H1           0.3520    -2.3910    -0.1840 hn         1 KK8       0.182000
     31 H2          -1.7160     0.7250    -0.4770 ha         1 KK8       0.169000
     32 H3          -5.3450    -1.5980    -0.6650 ha         1 KK8       0.117000
     33 H4          -4.0410    -3.6740    -0.3990 ha         1 KK8       0.114000
     34 H5          -1.5740    -3.5890    -0.1740 ha         1 KK8       0.115000
     35 H7           3.2080     1.0120     0.0940 ha         1 KK8       0.155000
     36 H8           5.9600    -2.3260     0.1920 ha         1 KK8       0.129000
     37 H9           4.0060    -3.8410     0.0080 h4         1 KK8       0.025100
     38 H10         -5.8140    -0.0110     1.3450 h1         1 KK8       0.106700
     39 H11          4.8430     1.9940     1.3840 h4         1 KK8       0.027100
     40 H12          8.7860     3.0300     0.6290 h4         1 KK8       0.023100
     41 H13          9.2120     0.8800    -0.5750 ha         1 KK8       0.127000
     42 H14          7.3600    -0.7800    -0.8190 ha         1 KK8       0.121000
     43 H15         -8.0970     0.5960     2.1580 hc         1 KK8       0.084950
     44 H16         -8.3460     1.7090     0.7260 hc         1 KK8       0.084950
     45 H17         -8.0270    -0.2240    -0.8500 hc         1 KK8       0.084950
     46 H18         -7.8010    -1.3510     0.5770 hc         1 KK8       0.084950
     47 H6          -6.8410     3.0790    -0.4330 h5         1 KK8       0.062100
@<TRIPOS>BOND
     1     1     2 1   
     2     1    13 1   
     3     1    30 1   
     4     2     3 ar  
     5     2     7 ar  
     6     3     4 ar  
     7     3    31 1   
     8     4     5 ar  
     9     4    11 1   
    10     5     6 ar  
    11     5    32 1   
    12     6     7 ar  
    13     6    33 1   
    14     7    34 1   
    15     8     9 2   
    16     8    12 1   
    17     8    47 1   
    18     9    10 1   
    19    10    11 2   
    20    11    12 1   
    21    12    21 1   
    22    13    14 1   
    23    13    20 2   
    24    14    15 ar  
    25    14    16 ar  
    26    15    19 ar  
    27    16    17 ar  
    28    16    35 1   
    29    17    18 ar  
    30    17    22 1   
    31    18    19 ar  
    32    18    36 1   
    33    19    37 1   
    34    21    28 1   
    35    21    29 1   
    36    21    38 1   
    37    22    23 ar  
    38    22    27 ar  
    39    23    24 ar  
    40    23    39 1   
    41    24    25 ar  
    42    25    26 ar  
    43    25    40 1   
    44    26    27 ar  
    45    26    41 1   
    46    27    42 1   
    47    28    29 1   
    48    28    43 1   
    49    28    44 1   
    50    29    45 1   
    51    29    46 1   
@<TRIPOS>SUBSTRUCTURE
     1 KK8         1 TEMP              0 ****  ****    0 ROOT
