@<TRIPOS>MOLECULE
KK8
   47    51     1     0     0
SMALL
bcc


@<TRIPOS>ATOM
      1 N01         -0.0330    -1.4960    -0.2000 ns         1 KK8      -0.455100
      2 C02         -1.4200    -1.4430    -0.3240 ca         1 KK8       0.074600
      3 C03         -2.1520    -0.2620    -0.3950 ca         1 KK8      -0.115000
      4 C04         -3.5430    -0.3060    -0.5060 ca         1 KK8      -0.100500
      5 C05         -4.2050    -1.5300    -0.5550 ca         1 KK8      -0.145000
      6 C06         -3.4690    -2.7040    -0.4810 ca         1 KK8      -0.106000
      7 C07         -2.0930    -2.6680    -0.3640 ca         1 KK8      -0.171000
      8 C08         -5.6560     2.5800    -0.3740 cc         1 KK8       0.370400
      9 N09         -4.6450     3.0430    -1.0480 nd         1 KK8      -0.355000
     10 N10         -3.7570     2.0350    -1.1880 nd         1 KK8      -0.347000
     11 C11         -4.2490     0.9740    -0.6030 cc         1 KK8       0.439000
     12 N12         -5.4680     1.2740    -0.0730 na         1 KK8      -0.307700
     13 C13          0.8650    -0.4900    -0.1810 c          1 KK8       0.578600
     14 C14          2.2830    -0.9650    -0.0230 ca         1 KK8       0.351800
     15 N15          2.4810    -2.2750     0.0660 nb         1 KK8      -0.680000
     16 C16          3.3080    -0.0360     0.0210 ca         1 KK8      -0.179300
     17 C17          4.6190    -0.4870     0.1710 cp         1 KK8       0.007000
     18 C18          4.8180    -1.8610     0.2630 ca         1 KK8      -0.223300
     19 C19          3.7230    -2.7100     0.2030 ca         1 KK8       0.407200
     20 O20          0.6060     0.6970    -0.2770 o          1 KK8      -0.569100
     21 C21         -6.3170     0.4420     0.7290 cx         1 KK8      -0.018000
     22 C22          5.7460     0.4570     0.2340 cp         1 KK8      -0.171300
     23 C23          5.6110     1.6910     0.8700 ca         1 KK8       0.424200
     24 N24          6.5860     2.5830     0.9620 nb         1 KK8      -0.661000
     25 C25          7.7590     2.2850     0.4160 ca         1 KK8       0.412200
     26 C26          8.0080     1.0860    -0.2370 ca         1 KK8      -0.248300
     27 C27          6.9850     0.1580    -0.3270 ca         1 KK8      -0.075000
     28 C28         -7.7510     0.8160     0.9080 cx         1 KK8      -0.130900
     29 C29         -7.3880    -0.3780     0.0820 cx         1 KK8      -0.130900
     30 H1           0.3760    -2.4200    -0.1140 hn         1 KK8       0.348500
     31 H2          -1.6590     0.6960    -0.3540 ha         1 KK8       0.187000
     32 H3          -5.2770    -1.5830    -0.6690 ha         1 KK8       0.135000
     33 H4          -3.9760    -3.6580    -0.5230 ha         1 KK8       0.132000
     34 H5          -1.5310    -3.5930    -0.3030 ha         1 KK8       0.133000
     35 H7           3.0900     1.0180    -0.0810 ha         1 KK8       0.173000
     36 H8           5.8070    -2.2780     0.4000 ha         1 KK8       0.147000
     37 H9           3.8600    -3.7820     0.2760 h4         1 KK8       0.025100
     38 H10         -5.8000     0.0190     1.5810 h1         1 KK8       0.106700
     39 H11          4.6720     1.9580     1.3430 h4         1 KK8       0.027100
     40 H12          8.5390     3.0330     0.5010 h4         1 KK8       0.023100
     41 H13          8.9790     0.8900    -0.6690 ha         1 KK8       0.145000
     42 H14          7.1450    -0.7790    -0.8450 ha         1 KK8       0.139000
     43 H15         -8.1720     0.6620     1.8920 hc         1 KK8       0.084950
     44 H16         -8.1380     1.6830     0.3910 hc         1 KK8       0.084950
     45 H17         -7.4990    -0.2920    -0.9910 hc         1 KK8       0.084950
     46 H18         -7.5670    -1.3680     0.4810 hc         1 KK8       0.084950
     47 H6          -6.5280     3.1400    -0.0790 h5         1 KK8       0.062100
@<TRIPOS>BOND
     1     1     2 1   
     2     1    13 1   
     3     1    30 1   
     4     2     3 ar  
     5     2     7 ar  
     6     3     4 ar  
     7     3    31 1   
     8     4     5 ar  
     9     4    11 1   
    10     5     6 ar  
    11     5    32 1   
    12     6     7 ar  
    13     6    33 1   
    14     7    34 1   
    15     8     9 2   
    16     8    12 1   
    17     8    47 1   
    18     9    10 1   
    19    10    11 2   
    20    11    12 1   
    21    12    21 1   
    22    13    14 1   
    23    13    20 2   
    24    14    15 ar  
    25    14    16 ar  
    26    15    19 ar  
    27    16    17 ar  
    28    16    35 1   
    29    17    18 ar  
    30    17    22 1   
    31    18    19 ar  
    32    18    36 1   
    33    19    37 1   
    34    21    28 1   
    35    21    29 1   
    36    21    38 1   
    37    22    23 ar  
    38    22    27 ar  
    39    23    24 ar  
    40    23    39 1   
    41    24    25 ar  
    42    25    26 ar  
    43    25    40 1   
    44    26    27 ar  
    45    26    41 1   
    46    27    42 1   
    47    28    29 1   
    48    28    43 1   
    49    28    44 1   
    50    29    45 1   
    51    29    46 1   
@<TRIPOS>SUBSTRUCTURE
     1 KK8         1 TEMP              0 ****  ****    0 ROOT
