@<TRIPOS>MOLECULE
KK9
   36    37     1     0     0
SMALL
bcc


@<TRIPOS>ATOM
      1 C1          48.1870    27.3250     9.4170 ca         1 KK9      -0.006600
      2 C10         46.6180    20.6470     2.7240 c3         1 KK9      -0.097100
      3 C11         46.1160    20.5380     7.9890 ca         1 KK9      -0.147000
      4 C12         46.4800    20.8960     9.2800 ca         1 KK9      -0.097000
      5 C13         47.4520    21.8510     9.5540 ca         1 KK9      -0.106300
      6 C14         47.8390    22.2180    10.9550 c3         1 KK9      -0.041800
      7 C15         47.4240    25.1530     8.7410 ca         1 KK9      -0.173000
      8 C16         47.1630    26.4900     9.0060 ca         1 KK9      -0.089000
      9 C2          49.4770    26.8370     9.5680 ca         1 KK9      -0.089000
     10 C3          49.7390    25.5030     9.3070 ca         1 KK9      -0.173000
     11 C4          48.7140    24.6580     8.8930 ca         1 KK9       0.140100
     12 C5          48.0610    22.4420     8.4490 ca         1 KK9       0.117100
     13 C6          47.7250    22.1080     7.1530 ca         1 KK9      -0.194000
     14 C7          46.7450    21.1450     6.9030 ca         1 KK9       0.080600
     15 C8          45.5760    19.9990     5.0270 c          1 KK9       0.676100
     16 C9          45.5010    19.9780     3.5120 c3         1 KK9      -0.166400
     17 N1          46.4680    20.8720     5.5610 ns         1 KK9      -0.472100
     18 O1          49.0590    23.3660     8.6450 os         1 KK9      -0.253200
     19 O2          44.8520    19.2830     5.6960 o          1 KK9      -0.584100
     20 CL1         47.8580    28.9950     9.7480 cl         1 KK9      -0.112400
     21 H1          46.4680    20.4760     1.6600 hc         1 KK9       0.041700
     22 H2          46.6410    21.7290     2.8670 hc         1 KK9       0.041700
     23 H3          47.5990    20.2440     2.9820 hc         1 KK9       0.041700
     24 H4          45.3540    19.7900     7.8460 ha         1 KK9       0.171000
     25 H5          45.9830    20.4080    10.1090 ha         1 KK9       0.137000
     26 H6          47.6070    23.2610    11.1810 hc         1 KK9       0.047367
     27 H7          47.3030    21.6010    11.6740 hc         1 KK9       0.047367
     28 H8          48.9070    22.0820    11.1270 hc         1 KK9       0.047367
     29 H9          46.6120    24.5160     8.4160 ha         1 KK9       0.150500
     30 H10         46.1570    26.8710     8.8870 ha         1 KK9       0.148000
     31 H11         50.2780    27.4880     9.8900 ha         1 KK9       0.148000
     32 H12         50.7430    25.1160     9.4270 ha         1 KK9       0.150500
     33 H13         48.2330    22.5990     6.3300 ha         1 KK9       0.143000
     34 H14         44.5400    20.4270     3.2460 hc         1 KK9       0.076200
     35 H15         45.4230    18.9270     3.2270 hc         1 KK9       0.076200
     36 H16         47.0130    21.4130     4.9070 hn         1 KK9       0.321500
@<TRIPOS>BOND
     1     1     8 ar  
     2     1     9 ar  
     3     1    20 1   
     4     2    16 1   
     5     2    21 1   
     6     2    22 1   
     7     2    23 1   
     8     3     4 ar  
     9     3    14 ar  
    10     3    24 1   
    11     4     5 ar  
    12     4    25 1   
    13     5     6 1   
    14     5    12 ar  
    15     6    26 1   
    16     6    27 1   
    17     6    28 1   
    18     7     8 ar  
    19     7    11 ar  
    20     7    29 1   
    21     8    30 1   
    22     9    10 ar  
    23     9    31 1   
    24    10    11 ar  
    25    10    32 1   
    26    11    18 1   
    27    12    13 ar  
    28    12    18 1   
    29    13    14 ar  
    30    13    33 1   
    31    14    17 1   
    32    15    16 1   
    33    15    17 1   
    34    15    19 2   
    35    16    34 1   
    36    16    35 1   
    37    17    36 1   
@<TRIPOS>SUBSTRUCTURE
     1 KK9         1 TEMP              0 ****  ****    0 ROOT
