@<TRIPOS>MOLECULE
KK9
   36    37     1     0     0
SMALL
No Charge or Current Charge


@<TRIPOS>ATOM
      1 C1          47.9340    27.5130     8.5650 ca         1 KK9       0.085000
      2 C10         46.5500    20.0390     2.5700 c3         1 KK9      -0.097100
      3 C11         46.4930    20.2800     8.0170 ca         1 KK9      -0.129000
      4 C12         46.8600    20.3150     9.3740 ca         1 KK9      -0.079000
      5 C13         47.6000    21.3960     9.8870 ca         1 KK9      -0.106300
      6 C14         47.9920    21.4260    11.3600 c3         1 KK9      -0.041800
      7 C15         47.1080    25.2630     8.9930 ca         1 KK9      -0.155000
      8 C16         46.8620    26.6120     8.6760 ca         1 KK9      -0.071000
      9 C2          49.2520    27.0720     8.7750 ca         1 KK9      -0.071000
     10 C3          49.4990    25.7240     9.0920 ca         1 KK9      -0.155000
     11 C4          48.4300    24.8160     9.1910 ca         1 KK9       0.140100
     12 C5          47.9650    22.4490     9.0250 ca         1 KK9       0.117100
     13 C6          47.6070    22.4050     7.6630 ca         1 KK9      -0.176000
     14 C7          46.8650    21.3280     7.1470 ca         1 KK9      -0.012000
     15 C8          45.7840    20.5130     4.9590 c          1 KK9       0.609100
     16 C9          45.7020    20.9470     3.4890 c3         1 KK9      -0.166400
     17 N1          46.5390    21.3590     5.7630 ns         1 KK9      -0.146000
     18 O1          48.7000    23.5060     9.5150 os         1 KK9      -0.253200
     19 O2          45.1950    19.5170     5.3620 o          1 KK9      -0.584100
     20 Cl1         47.6260    29.1990     8.1700 cl         1 KK9      -0.204000
     21 H1          46.4730    20.3680     1.5270 hc         1 KK9       0.041700
     22 H2          47.6080    20.0700     2.8610 hc         1 KK9       0.041700
     23 H3          46.2080    18.9980     2.6260 hc         1 KK9       0.041700
     24 H4          45.9270    19.4240     7.6630 ha         1 KK9       0.153000
     25 H5          46.5670    19.4950    10.0260 ha         1 KK9       0.119000
     26 H6          47.5850    22.3150    11.8570 hc         1 KK9       0.047367
     27 H7          47.6210    20.5470    11.9000 hc         1 KK9       0.047367
     28 H8          49.0820    21.4480    11.4750 hc         1 KK9       0.047367
     29 H9          46.2740    24.5730     9.0890 ha         1 KK9       0.132500
     30 H10         45.8430    26.9590     8.5200 ha         1 KK9       0.130000
     31 H11         50.0790    27.7740     8.6930 ha         1 KK9       0.130000
     32 H12         50.5170    25.3800     9.2560 ha         1 KK9       0.132500
     33 H13         47.9120    23.2140     7.0040 ha         1 KK9       0.125000
     34 H14         46.0610    21.9780     3.3790 hc         1 KK9       0.076200
     35 H15         44.6570    20.8840     3.1640 hc         1 KK9       0.076200
     36 H16         46.9390    22.1450     5.2690 hn         1 KK9       0.155000
@<TRIPOS>BOND
     1     1     8 ar  
     2     1     9 ar  
     3     1    20 1   
     4     2    16 1   
     5     2    21 1   
     6     2    22 1   
     7     2    23 1   
     8     3     4 ar  
     9     3    14 ar  
    10     3    24 1   
    11     4     5 ar  
    12     4    25 1   
    13     5     6 1   
    14     5    12 ar  
    15     6    26 1   
    16     6    27 1   
    17     6    28 1   
    18     7     8 ar  
    19     7    11 ar  
    20     7    29 1   
    21     8    30 1   
    22     9    10 ar  
    23     9    31 1   
    24    10    11 ar  
    25    10    32 1   
    26    11    18 1   
    27    12    13 ar  
    28    12    18 1   
    29    13    14 ar  
    30    13    33 1   
    31    14    17 1   
    32    15    16 1   
    33    15    17 1   
    34    15    19 2   
    35    16    34 1   
    36    16    35 1   
    37    17    36 1   
@<TRIPOS>SUBSTRUCTURE
     1 KK9         1 TEMP              0 ****  ****    0 ROOT
