@<TRIPOS>MOLECULE
KKB
   52    53     1     0     0
SMALL
No Charge or Current Charge


@<TRIPOS>ATOM
      1 O5           8.8760     4.4540    -9.8550 o          1 KKB      -0.712500
      2 C18          9.7850     3.7120    -9.5070 c          1 KKB       0.702000
      3 O4          10.3870     3.8490    -8.4500 o          1 KKB      -0.712500
      4 C17         10.2150     2.5280   -10.4270 c3         1 KKB      -0.004400
      5 O3           9.6250     2.5580   -11.7520 os         1 KKB      -0.327100
      6 C16          9.9940     3.4750   -12.7250 ca         1 KKB       0.234100
      7 C15         11.0290     4.4140   -12.5200 ca         1 KKB      -0.199000
      8 C14         11.3830     5.3130   -13.5390 ca         1 KKB      -0.029000
      9 C19          9.3120     3.4480   -13.9620 ca         1 KKB      -0.148300
     10 C20          8.2030     2.4320   -14.2140 c3         1 KKB      -0.022800
     11 C21          9.6670     4.3600   -14.9740 ca         1 KKB      -0.039000
     12 C13         10.7060     5.2830   -14.7700 ca         1 KKB      -0.199000
     13 S1          11.1570     6.4090   -16.0860 ss         1 KKB      -0.218000
     14 C12         12.9890     6.1540   -16.3070 c3         1 KKB       0.046600
     15 C3          13.3530     4.9250   -17.1860 c3         1 KKB       0.186300
     16 O1          12.7610     5.1410   -18.4900 os         1 KKB      -0.445000
     17 C2          13.1830     4.2530   -19.5400 c3         1 KKB       0.160600
     18 C1          12.5350     4.7420   -20.8440 c3         1 KKB      -0.091100
     19 C4          12.8770     3.5660   -16.6010 c3         1 KKB       0.126600
     20 O2          13.4580     3.4040   -15.2930 os         1 KKB      -0.338100
     21 C5          13.0730     2.3930   -14.4380 ca         1 KKB       0.186100
     22 C11         13.6840     2.3360   -13.1770 ca         1 KKB      -0.181000
     23 C10         13.3170     1.3480   -12.2490 ca         1 KKB      -0.021000
     24 C8          12.3220     0.4010   -12.5740 ca         1 KKB      -0.246300
     25 C9          11.9020    -0.6780   -11.5720 c3         1 KKB       0.361300
     26 F3          12.1940    -0.3460   -10.2940 f          1 KKB      -0.118333
     27 F2          12.5240    -1.8510   -11.8270 f          1 KKB      -0.118333
     28 F1          10.5710    -0.9190   -11.6130 f          1 KKB      -0.118333
     29 C7          11.7190     0.4520   -13.8490 ca         1 KKB      -0.021000
     30 C6          12.0910     1.4390   -14.7760 ca         1 KKB      -0.181000
     31 H2           9.9070     1.6080    -9.9160 h1         1 KKB       0.034700
     32 H3          11.3100     2.5090   -10.4890 h1         1 KKB       0.034700
     33 H4          11.5750     4.4550   -11.5840 ha         1 KKB       0.140000
     34 H5          12.1820     6.0300   -13.3690 ha         1 KKB       0.109000
     35 H6           8.5810     1.4070   -14.1170 hc         1 KKB       0.034033
     36 H7           7.3840     2.5580   -13.4950 hc         1 KKB       0.034033
     37 H8           7.7770     2.5320   -15.2200 hc         1 KKB       0.034033
     38 H9           9.1480     4.3430   -15.9300 ha         1 KKB       0.097000
     39 H10         13.4680     6.0650   -15.3250 h1         1 KKB       0.076200
     40 H11         13.3970     7.0490   -16.7910 h1         1 KKB       0.076200
     41 H12         14.4470     4.8940   -17.2760 h1         1 KKB       0.037700
     42 H13         12.8590     3.2220   -19.3460 h1         1 KKB       0.015700
     43 H14         14.2750     4.2650   -19.6470 h1         1 KKB       0.015700
     44 H15         12.8290     4.0960   -21.6790 hc         1 KKB       0.042367
     45 H16         11.4420     4.7240   -20.7630 hc         1 KKB       0.042367
     46 H17         12.8540     5.7660   -21.0730 hc         1 KKB       0.042367
     47 H18         11.7830     3.5640   -16.5510 h1         1 KKB       0.053200
     48 H19         13.1930     2.7410   -17.2510 h1         1 KKB       0.053200
     49 H20         14.4420     3.0690   -12.9150 ha         1 KKB       0.130000
     50 H21         13.8080     1.3270   -11.2780 ha         1 KKB       0.125500
     51 H22         10.9560    -0.2740   -14.1250 ha         1 KKB       0.125500
     52 H23         11.6010     1.4520   -15.7440 ha         1 KKB       0.130000
@<TRIPOS>BOND
     1     1     2 1   
     2     2     3 1   
     3     2     4 1   
     4     4     5 1   
     5     4    31 1   
     6     4    32 1   
     7     5     6 1   
     8     6     7 ar  
     9     6     9 ar  
    10     7     8 ar  
    11     7    33 1   
    12     8    12 ar  
    13     8    34 1   
    14     9    10 1   
    15     9    11 ar  
    16    10    35 1   
    17    10    36 1   
    18    10    37 1   
    19    11    12 ar  
    20    11    38 1   
    21    12    13 1   
    22    13    14 1   
    23    14    15 1   
    24    14    39 1   
    25    14    40 1   
    26    15    16 1   
    27    15    19 1   
    28    15    41 1   
    29    16    17 1   
    30    17    18 1   
    31    17    42 1   
    32    17    43 1   
    33    18    44 1   
    34    18    45 1   
    35    18    46 1   
    36    19    20 1   
    37    19    47 1   
    38    19    48 1   
    39    20    21 1   
    40    21    22 ar  
    41    21    30 ar  
    42    22    23 ar  
    43    22    49 1   
    44    23    24 ar  
    45    23    50 1   
    46    24    25 1   
    47    24    29 ar  
    48    25    26 1   
    49    25    27 1   
    50    25    28 1   
    51    29    30 ar  
    52    29    51 1   
    53    30    52 1   
@<TRIPOS>SUBSTRUCTURE
     1 KKB         1 TEMP              0 ****  ****    0 ROOT
