@<TRIPOS>MOLECULE
KKB
   52    53     1     0     0
SMALL
bcc


@<TRIPOS>ATOM
      1 O5           7.7680     5.4990   -10.1400 o          1 KKB      -0.817800
      2 C18          8.6420     5.7940    -9.3110 c          1 KKB       0.912600
      3 O4           8.6160     6.6760    -8.4330 o          1 KKB      -0.817800
      4 C17          9.9390     4.9530    -9.3080 c3         1 KKB      -0.027600
      5 O3          10.0600     4.0520   -10.3930 os         1 KKB      -0.303900
      6 C16         10.2830     4.5320   -11.6230 ca         1 KKB       0.234100
      7 C15         10.5510     5.8700   -11.9090 ca         1 KKB      -0.217000
      8 C14         10.8180     6.2670   -13.2120 ca         1 KKB      -0.047000
      9 C19         10.2710     3.5820   -12.6600 ca         1 KKB      -0.148300
     10 C20          9.9850     2.1390   -12.3680 c3         1 KKB      -0.022800
     11 C21         10.5240     4.0110   -13.9530 ca         1 KKB      -0.057000
     12 C13         10.8140     5.3430   -14.2460 ca         1 KKB      -0.072100
     13 S1          11.1390     5.8600   -15.9100 ss         1 KKB      -0.297000
     14 C12         12.9320     5.5280   -16.0710 c3         1 KKB      -0.001300
     15 C3          13.2570     4.5200   -17.1610 c3         1 KKB       0.163100
     16 O1          12.7510     5.0180   -18.3740 os         1 KKB      -0.398600
     17 C2          13.4860     4.6520   -19.5260 c3         1 KKB       0.137400
     18 C1          12.8030     5.2290   -20.7440 c3         1 KKB      -0.091100
     19 C4          12.6660     3.1370   -16.9140 c3         1 KKB       0.103400
     20 O2          13.2080     2.6410   -15.7030 os         1 KKB      -0.314900
     21 C5          12.7710     1.4630   -15.2340 ca         1 KKB       0.186100
     22 C11         13.2890     1.0520   -14.0030 ca         1 KKB      -0.199000
     23 C10         12.9010    -0.1520   -13.4520 ca         1 KKB      -0.039000
     24 C8          11.9890    -0.9720   -14.1160 ca         1 KKB      -0.246300
     25 C9          11.5410    -2.2500   -13.4920 c3         1 KKB       0.725200
     26 F3          12.5330    -2.8670   -12.8340 f          1 KKB      -0.239633
     27 F2          11.0690    -3.1240   -14.3900 f          1 KKB      -0.239633
     28 F1          10.5560    -2.0530   -12.5980 f          1 KKB      -0.239633
     29 C7          11.4670    -0.5560   -15.3320 ca         1 KKB      -0.039000
     30 C6          11.8520     0.6520   -15.8950 ca         1 KKB      -0.199000
     31 H2           9.9440     4.3230    -8.4150 h1         1 KKB       0.034700
     32 H3          10.8180     5.6030    -9.2330 h1         1 KKB       0.034700
     33 H4          10.5600     6.6210   -11.1310 ha         1 KKB       0.158000
     34 H5          11.0300     7.3090   -13.4160 ha         1 KKB       0.127000
     35 H6          10.7200     1.7120   -11.6830 hc         1 KKB       0.034033
     36 H7           9.0040     2.0040   -11.9090 hc         1 KKB       0.034033
     37 H8          10.0090     1.5480   -13.2830 hc         1 KKB       0.034033
     38 H9          10.4930     3.2830   -14.7540 ha         1 KKB       0.115000
     39 H10         13.3050     5.1920   -15.1050 h1         1 KKB       0.076200
     40 H11         13.4300     6.4710   -16.3030 h1         1 KKB       0.076200
     41 H12         14.3540     4.4360   -17.2010 h1         1 KKB       0.037700
     42 H13         13.5550     3.5620   -19.6240 h1         1 KKB       0.015700
     43 H14         14.5140     5.0300   -19.4510 h1         1 KKB       0.015700
     44 H15         13.3670     4.9690   -21.6390 hc         1 KKB       0.042367
     45 H16         11.7930     4.8350   -20.8580 hc         1 KKB       0.042367
     46 H17         12.7450     6.3170   -20.6890 hc         1 KKB       0.042367
     47 H18         11.5750     3.2120   -16.8540 h1         1 KKB       0.053200
     48 H19         12.9150     2.4660   -17.7440 h1         1 KKB       0.053200
     49 H20         13.9980     1.6850   -13.4840 ha         1 KKB       0.148000
     50 H21         13.3200    -0.4430   -12.4980 ha         1 KKB       0.143500
     51 H22         10.7540    -1.1660   -15.8690 ha         1 KKB       0.143500
     52 H23         11.4280     0.9360   -16.8480 ha         1 KKB       0.148000
@<TRIPOS>BOND
     1     1     2 1   
     2     2     3 1   
     3     2     4 1   
     4     4     5 1   
     5     4    31 1   
     6     4    32 1   
     7     5     6 1   
     8     6     7 ar  
     9     6     9 ar  
    10     7     8 ar  
    11     7    33 1   
    12     8    12 ar  
    13     8    34 1   
    14     9    10 1   
    15     9    11 ar  
    16    10    35 1   
    17    10    36 1   
    18    10    37 1   
    19    11    12 ar  
    20    11    38 1   
    21    12    13 1   
    22    13    14 1   
    23    14    15 1   
    24    14    39 1   
    25    14    40 1   
    26    15    16 1   
    27    15    19 1   
    28    15    41 1   
    29    16    17 1   
    30    17    18 1   
    31    17    42 1   
    32    17    43 1   
    33    18    44 1   
    34    18    45 1   
    35    18    46 1   
    36    19    20 1   
    37    19    47 1   
    38    19    48 1   
    39    20    21 1   
    40    21    22 ar  
    41    21    30 ar  
    42    22    23 ar  
    43    22    49 1   
    44    23    24 ar  
    45    23    50 1   
    46    24    25 1   
    47    24    29 ar  
    48    25    26 1   
    49    25    27 1   
    50    25    28 1   
    51    29    30 ar  
    52    29    51 1   
    53    30    52 1   
@<TRIPOS>SUBSTRUCTURE
     1 KKB         1 TEMP              0 ****  ****    0 ROOT
