@<TRIPOS>MOLECULE
KKD
   19    18     1     0     0
SMALL
No Charge or Current Charge


@<TRIPOS>ATOM
      1 N           -0.8350    -0.4860    -0.4600 ns         1 KKD      -0.415900
      2 CA          -0.1250     0.6630     0.1490 c3         1 KKD      -0.018300
      3 C           -0.9020     1.9870    -0.1420 c          1 KKD       0.713000
      4 O           -1.2010     2.2520    -1.3000 o          1 KKD      -0.758500
      5 CB           1.3600     0.7420    -0.3080 c3         1 KKD      -0.200400
      6 CG           2.1680    -0.4750     0.1740 c          1 KKD       0.709000
      7 OD1          2.6820    -0.4220     1.2820 o          1 KKD      -0.767500
      8 OD2          2.2770    -1.4360    -0.5720 o          1 KKD      -0.767500
      9 CT1         -1.1360    -1.6720     0.1720 c          1 KKD       0.596100
     10 CT2         -1.8390    -2.7020    -0.7130 c3         1 KKD      -0.175100
     11 OT          -0.8800    -1.8860     1.3500 o          1 KKD      -0.664100
     12 H           -1.1190    -0.4060    -1.4290 hn         1 KKD       0.291500
     13 HA          -0.1360     0.5390     1.2400 h1         1 KKD       0.078700
     14 OXT         -1.2600     2.6700     0.8080 o          1 KKD      -0.758500
     15 HB3          1.3440     0.7860    -1.4030 hc         1 KKD       0.026700
     16 HB2          1.7510     1.6540     0.1610 hc         1 KKD       0.026700
     17 HT23        -1.2250    -2.8910    -1.6010 hc         1 KKD       0.027700
     18 HT22        -2.0760    -3.6310    -0.1810 hc         1 KKD       0.027700
     19 HT21        -2.7370    -2.2480    -1.1480 hc         1 KKD       0.027700
@<TRIPOS>BOND
     1     1     2 1   
     2     1     9 1   
     3     1    12 1   
     4     2     3 1   
     5     2     5 1   
     6     2    13 1   
     7     3     4 1   
     8     3    14 1   
     9     5     6 1   
    10     5    15 1   
    11     5    16 1   
    12     6     7 1   
    13     6     8 1   
    14     9    10 1   
    15     9    11 2   
    16    10    17 1   
    17    10    18 1   
    18    10    19 1   
@<TRIPOS>SUBSTRUCTURE
     1 KKD         1 TEMP              0 ****  ****    0 ROOT
