@<TRIPOS>MOLECULE
KKD
   19    18     1     0     0
SMALL
abcg2


@<TRIPOS>ATOM
      1 N           -0.4930    -0.7530    -0.3620 ns         1 KKD      -0.415900
      2 CA          -0.0070     0.4730     0.2260 c3         1 KKD      -0.018300
      3 C           -0.9710     1.6660     0.0060 c          1 KKD       0.713000
      4 O           -1.8770     1.5390    -0.8360 o          1 KKD      -0.758500
      5 CB           1.3730     0.7850    -0.3400 c3         1 KKD      -0.200400
      6 CG           2.4310    -0.2870    -0.0190 c          1 KKD       0.709000
      7 OD1          2.4510    -0.7200     1.1510 o          1 KKD      -0.767500
      8 OD2          3.2030    -0.6160    -0.9430 o          1 KKD      -0.767500
      9 CT1         -1.5470    -1.4190     0.1220 c          1 KKD       0.596100
     10 CT2         -2.0350    -2.5740    -0.7200 c3         1 KKD      -0.175100
     11 OT          -2.0850    -1.1370     1.1880 o          1 KKD      -0.664100
     12 H           -0.1810    -0.9810    -1.2920 hn         1 KKD       0.291500
     13 HA           0.1020     0.3160     1.3010 h1         1 KKD       0.078700
     14 OXT         -0.7210     2.6770     0.6950 o          1 KKD      -0.758500
     15 HB3          1.3070     0.9490    -1.4200 hc         1 KKD       0.026700
     16 HB2          1.7050     1.7330     0.0950 hc         1 KKD       0.026700
     17 HT23        -1.3950    -2.7950    -1.5730 hc         1 KKD       0.027700
     18 HT22        -2.1150    -3.4700    -0.1060 hc         1 KKD       0.027700
     19 HT21        -3.0330    -2.3470    -1.0960 hc         1 KKD       0.027700
@<TRIPOS>BOND
     1     1     2 1   
     2     1     9 1   
     3     1    12 1   
     4     2     3 1   
     5     2     5 1   
     6     2    13 1   
     7     3     4 1   
     8     3    14 1   
     9     5     6 1   
    10     5    15 1   
    11     5    16 1   
    12     6     7 1   
    13     6     8 1   
    14     9    10 1   
    15     9    11 2   
    16    10    17 1   
    17    10    18 1   
    18    10    19 1   
@<TRIPOS>SUBSTRUCTURE
     1 KKD         1 TEMP              0 ****  ****    0 ROOT
