@<TRIPOS>MOLECULE
KKF
   52    55     1     0     0
SMALL
bcc


@<TRIPOS>ATOM
      1 C10        124.1560   112.3170   157.4080 c6         1 KKF      -0.100900
      2 C12        125.4600   114.4900   157.2050 c5         1 KKF       0.071000
      3 C13        124.6330   111.3830   156.3100 c6         1 KKF       0.108500
      4 C14        122.9040   112.6330   155.0350 c6         1 KKF       0.108500
      5 C15        123.8730   115.1330   158.7470 c          1 KKF       0.842600
      6 C18        127.1860   114.5800   159.8100 ca         1 KKF      -0.105300
      7 C19        122.7960   110.4430   153.1600 ce         1 KKF      -0.240200
      8 C20        128.5220   114.6150   159.4410 ca         1 KKF      -0.108000
      9 C22        123.0300   109.7650   152.0320 cf         1 KKF      -0.033200
     10 C23        129.3960   113.6200   159.8610 ca         1 KKF       0.023400
     11 C09        124.1360   113.7710   156.9340 c5         1 KKF       0.145800
     12 C11        123.7120   113.8460   155.4720 c6         1 KKF      -0.100900
     13 C21        126.7310   113.5330   160.6070 ca         1 KKF      -0.101000
     14 C24        127.5970   112.5410   161.0290 ca         1 KKF      -0.117000
     15 C25        128.9340   112.5790   160.6540 ca         1 KKF       0.031400
     16 C26        122.1300   109.6230   150.8910 ca         1 KKF      -0.072800
     17 C27        120.8240   110.1220   150.8740 ca         1 KKF      -0.099000
     18 C28        122.5900   108.9450   149.7610 ca         1 KKF      -0.099000
     19 C29        120.0080   109.9480   149.7720 ca         1 KKF      -0.125500
     20 C30        121.7860   108.7640   148.6470 ca         1 KKF      -0.125500
     21 C31        120.4960   109.2680   148.6640 ca         1 KKF       0.038400
     22 N07        123.7170   111.4300   155.1750 n          1 KKF      -0.483800
     23 N08        125.1990   115.0530   158.5040 n          1 KKF      -0.519800
     24 O04        123.2090   114.4980   157.7670 os         1 KKF      -0.394900
     25 O05        123.3110   115.6720   159.6700 o          1 KKF      -0.606500
     26 O06        124.6870   109.5970   154.3030 o          1 KKF      -0.605100
     27 CL01       131.0470   113.6870   159.3740 cl         1 KKF      -0.076400
     28 CL02       129.9970   111.3300   161.1770 cl         1 KKF      -0.073400
     29 CL03       119.4740   109.0470   147.2860 cl         1 KKF      -0.104400
     30 H1         123.1500   112.0250   157.7210 hc         1 KKF       0.069950
     31 H2         124.8030   112.2050   158.2810 hc         1 KKF       0.069950
     32 H3         126.3050   113.7980   157.2160 h1         1 KKF       0.063700
     33 H4         125.6690   115.2720   156.4670 h1         1 KKF       0.063700
     34 H5         124.6780   110.3650   156.6970 h1         1 KKF       0.056950
     35 H6         125.6510   111.6460   156.0000 h1         1 KKF       0.056950
     36 H7         122.6230   112.7710   153.9940 h1         1 KKF       0.056950
     37 H8         121.9790   112.5540   155.6130 h1         1 KKF       0.056950
     38 H9         126.7620   116.4060   158.7650 h1         1 KKF       0.069200
     39 H10        125.7450   116.1280   160.1710 h1         1 KKF       0.069200
     40 H11        121.8590   110.9640   153.3090 ha         1 KKF       0.133000
     41 H12        128.8910   115.4170   158.8150 ha         1 KKF       0.149000
     42 H13        123.9870   109.2630   151.9280 ha         1 KKF       0.147000
     43 H14        124.6070   113.9030   154.8460 hc         1 KKF       0.069950
     44 H15        123.1470   114.7610   155.2900 hc         1 KKF       0.069950
     45 H16        125.6910   113.4870   160.9050 ha         1 KKF       0.149000
     46 H17        127.2390   111.7320   161.6510 ha         1 KKF       0.154000
     47 H18        120.4250   110.6510   151.7300 ha         1 KKF       0.137500
     48 H19        123.5980   108.5480   149.7500 ha         1 KKF       0.137500
     49 H20        118.9990   110.3370   149.7750 ha         1 KKF       0.150000
     50 H21        122.1630   108.2360   147.7810 ha         1 KKF       0.150000
     51 C16        126.2250   115.6360   159.3250 c3         1 KKF       0.171300
     52 C17        123.8120   110.4560   154.2430 c          1 KKF       0.671300
@<TRIPOS>BOND
     1     1     3 1   
     2     1    11 1   
     3     1    30 1   
     4     1    31 1   
     5     2    11 1   
     6     2    23 1   
     7     2    32 1   
     8     2    33 1   
     9     3    22 1   
    10     3    34 1   
    11     3    35 1   
    12     4    12 1   
    13     4    22 1   
    14     4    36 1   
    15     4    37 1   
    16     5    23 1   
    17     5    24 1   
    18     5    25 2   
    19     6     8 ar  
    20     6    13 ar  
    21     6    51 1   
    22     7     9 2   
    23     7    40 1   
    24     7    52 1   
    25     8    10 ar  
    26     8    41 1   
    27     9    16 1   
    28     9    42 1   
    29    10    15 ar  
    30    10    27 1   
    31    11    12 1   
    32    11    24 1   
    33    12    43 1   
    34    12    44 1   
    35    13    14 ar  
    36    13    45 1   
    37    14    15 ar  
    38    14    46 1   
    39    15    28 1   
    40    16    17 ar  
    41    16    18 ar  
    42    17    19 ar  
    43    17    47 1   
    44    18    20 ar  
    45    18    48 1   
    46    19    21 ar  
    47    19    49 1   
    48    20    21 ar  
    49    20    50 1   
    50    21    29 1   
    51    22    52 1   
    52    23    51 1   
    53    26    52 2   
    54    38    51 1   
    55    39    51 1   
@<TRIPOS>SUBSTRUCTURE
     1 KKF         1 TEMP              0 ****  ****    0 ROOT
