@<TRIPOS>MOLECULE
KKF
   52    55     1     0     0
SMALL
No Charge or Current Charge


@<TRIPOS>ATOM
      1 C10        125.4510   112.3830   156.5570 c6         1 KKF      -0.100900
      2 C12        125.6100   114.8970   157.2310 c5         1 KKF       0.071000
      3 C13        125.8530   111.8990   155.1440 c6         1 KKF       0.108500
      4 C14        123.6980   112.9440   154.3550 c6         1 KKF       0.108500
      5 C15        123.8620   114.1670   158.6620 c          1 KKF       0.700100
      6 C18        126.6530   114.5080   160.4420 ca         1 KKF      -0.105300
      7 C19        123.2130   110.6200   152.5760 ce         1 KKF      -0.290200
      8 C20        127.9970   114.4520   160.0220 ca         1 KKF      -0.090000
      9 C22        122.9350   109.6160   151.6910 cf         1 KKF      -0.083200
     10 C23        128.8940   113.5540   160.6260 ca         1 KKF       0.115000
     11 C09        124.7390   113.7760   156.5690 c5         1 KKF       0.169000
     12 C11        124.2600   114.1530   155.1410 c6         1 KKF      -0.100900
     13 C21        126.2120   113.6540   161.4710 ca         1 KKF      -0.083000
     14 C24        127.1080   112.7550   162.0770 ca         1 KKF      -0.099000
     15 C25        128.4480   112.7020   161.6580 ca         1 KKF       0.123000
     16 C26        121.7350   109.4090   150.8520 ca         1 KKF      -0.072800
     17 C27        120.6450   110.3080   150.8730 ca         1 KKF      -0.081000
     18 C28        121.6720   108.2810   150.0060 ca         1 KKF      -0.081000
     19 C29        119.5180   110.0810   150.0620 ca         1 KKF      -0.107500
     20 C30        120.5450   108.0560   149.1960 ca         1 KKF      -0.107500
     21 C31        119.4690   108.9560   149.2250 ca         1 KKF       0.130000
     22 N07        124.6670   111.8150   154.2430 n          1 KKF      -0.416800
     23 N08        125.0510   114.8720   158.5810 n          1 KKF      -0.452800
     24 O04        123.5770   113.6630   157.4300 os         1 KKF      -0.418100
     25 O05        123.1690   114.0300   159.6580 o          1 KKF      -0.531000
     26 O06        125.3300   109.8410   153.2810 o          1 KKF      -0.605100
     27 Cl01       130.5670   113.5120   160.0690 cl         1 KKF      -0.168000
     28 Cl02       129.5450   111.5620   162.4370 cl         1 KKF      -0.165000
     29 Cl03       118.0590   108.6740   148.2120 cl         1 KKF      -0.196000
     30 H1         124.7870   111.6260   156.9990 hc         1 KKF       0.069950
     31 H2         126.3410   112.4000   157.2010 hc         1 KKF       0.069950
     32 H3         126.6840   114.6720   157.2140 h1         1 KKF       0.063700
     33 H4         125.4490   115.8760   156.7610 h1         1 KKF       0.063700
     34 H5         126.3380   110.9170   155.2380 h1         1 KKF       0.056950
     35 H6         126.5920   112.5860   154.7070 h1         1 KKF       0.056950
     36 H7         123.4220   113.2910   153.3490 h1         1 KKF       0.056950
     37 H8         122.7840   112.5830   154.8490 h1         1 KKF       0.056950
     38 H9         126.2150   116.3770   159.4690 h1         1 KKF       0.069200
     39 H10        124.9060   115.7730   160.4860 h1         1 KKF       0.069200
     40 H11        122.4760   111.4000   152.7250 ha         1 KKF       0.183000
     41 H12        128.3480   115.1020   159.2240 ha         1 KKF       0.131000
     42 H13        123.6950   108.8410   151.5670 ha         1 KKF       0.197000
     43 H14        125.0960   114.5860   154.5760 hc         1 KKF       0.069950
     44 H15        123.4980   114.9410   155.2010 hc         1 KKF       0.069950
     45 H16        125.1750   113.6820   161.7980 ha         1 KKF       0.131000
     46 H17        126.7630   112.0970   162.8710 ha         1 KKF       0.136000
     47 H18        120.6580   111.1860   151.5120 ha         1 KKF       0.119500
     48 H19        122.4980   107.5750   149.9720 ha         1 KKF       0.119500
     49 H20        118.6840   110.7770   150.0830 ha         1 KKF       0.132000
     50 H21        120.5050   107.1850   148.5470 ha         1 KKF       0.132000
     51 C16        125.6800   115.4670   159.7700 c3         1 KKF       0.171300
     52 C17        124.4760   110.7120   153.3760 c          1 KKF       0.604300
@<TRIPOS>BOND
     1     1     3 1   
     2     1    11 1   
     3     1    30 1   
     4     1    31 1   
     5     2    11 1   
     6     2    23 1   
     7     2    32 1   
     8     2    33 1   
     9     3    22 1   
    10     3    34 1   
    11     3    35 1   
    12     4    12 1   
    13     4    22 1   
    14     4    36 1   
    15     4    37 1   
    16     5    23 1   
    17     5    24 1   
    18     5    25 2   
    19     6     8 ar  
    20     6    13 ar  
    21     6    51 1   
    22     7     9 2   
    23     7    40 1   
    24     7    52 1   
    25     8    10 ar  
    26     8    41 1   
    27     9    16 1   
    28     9    42 1   
    29    10    15 ar  
    30    10    27 1   
    31    11    12 1   
    32    11    24 1   
    33    12    43 1   
    34    12    44 1   
    35    13    14 ar  
    36    13    45 1   
    37    14    15 ar  
    38    14    46 1   
    39    15    28 1   
    40    16    17 ar  
    41    16    18 ar  
    42    17    19 ar  
    43    17    47 1   
    44    18    20 ar  
    45    18    48 1   
    46    19    21 ar  
    47    19    49 1   
    48    20    21 ar  
    49    20    50 1   
    50    21    29 1   
    51    22    52 1   
    52    23    51 1   
    53    26    52 2   
    54    38    51 1   
    55    39    51 1   
@<TRIPOS>SUBSTRUCTURE
     1 KKF         1 TEMP              0 ****  ****    0 ROOT
