@<TRIPOS>MOLECULE
KKG
   22    23     1     0     0
SMALL
No Charge or Current Charge


@<TRIPOS>ATOM
      1 C1           3.2640    -0.1220    -0.3210 c          1 KKG       0.720000
      2 C2           0.4060    -1.6170     0.4170 cc         1 KKG       0.534800
      3 C3          -1.7330    -0.8580     0.0110 ca         1 KKG       0.202400
      4 C4          -3.0790    -1.1420    -0.2870 ca         1 KKG      -0.123000
      5 C5          -4.0220    -0.1110    -0.4270 ca         1 KKG      -0.091000
      6 C6          -3.6230     1.2240    -0.2700 ca         1 KKG      -0.165000
      7 O1           3.9300     0.8810    -0.5320 o          1 KKG      -0.712500
      8 N1          -0.8590    -1.9460     0.1300 nd         1 KKG      -0.682100
      9 C9           0.0810     0.7770     0.4820 c          1 KKG       0.577600
     10 N            0.9070    -0.3380     0.6140 n          1 KKG      -0.273300
     11 C            2.3560    -0.1510     0.9260 c3         1 KKG      -0.075000
     12 O            3.2560    -1.0970    -1.0580 o          1 KKG      -0.712500
     13 C8          -1.3390     0.4810     0.1680 ca         1 KKG      -0.202600
     14 C7          -2.2840     1.5220     0.0260 ca         1 KKG      -0.036000
     15 H1           1.1460    -2.4010     0.5250 h5         1 KKG       0.041800
     16 H2          -3.3950    -2.1740    -0.4110 ha         1 KKG       0.118000
     17 H3          -5.0590    -0.3470    -0.6580 ha         1 KKG       0.096000
     18 H4          -4.3480     2.0270    -0.3780 ha         1 KKG       0.100000
     19 H6           2.6940    -0.9790     1.5610 h1         1 KKG       0.044200
     20 H7           2.5070     0.7740     1.4960 h1         1 KKG       0.044200
     21 H8          -1.9840     2.5620     0.1460 ha         1 KKG       0.127000
     22 O2           0.4900     1.9250     0.6140 o          1 KKG      -0.535000
@<TRIPOS>BOND
     1     1     7 1   
     2     1    11 1   
     3     1    12 1   
     4     2     8 2   
     5     2    10 1   
     6     2    15 1   
     7     3     4 ar  
     8     3     8 1   
     9     3    13 ar  
    10     4     5 ar  
    11     4    16 1   
    12     5     6 ar  
    13     5    17 1   
    14     6    14 ar  
    15     6    18 1   
    16     9    10 1   
    17     9    13 1   
    18     9    22 2   
    19    10    11 1   
    20    11    19 1   
    21    11    20 1   
    22    13    14 ar  
    23    14    21 1   
@<TRIPOS>SUBSTRUCTURE
     1 KKG         1 TEMP              0 ****  ****    0 ROOT
