@<TRIPOS>MOLECULE
KKG
   22    23     1     0     0
SMALL
bcc


@<TRIPOS>ATOM
      1 C1           3.0700     0.0800    -0.3930 c          1 KKG       0.930600
      2 C2           0.3810    -1.6200     0.5800 cc         1 KKG       0.534800
      3 C3          -1.7030    -0.8890     0.0790 ca         1 KKG       0.202400
      4 C4          -3.0420    -1.1750    -0.2230 ca         1 KKG      -0.141000
      5 C5          -3.9340    -0.1490    -0.4420 ca         1 KKG      -0.109000
      6 C6          -3.5180     1.1870    -0.3720 ca         1 KKG      -0.183000
      7 O1           4.2580     0.4100    -0.2390 o          1 KKG      -0.817800
      8 N1          -0.8290    -1.9290     0.2910 nd         1 KKG      -0.682100
      9 C9           0.1030     0.7510     0.4590 c          1 KKG       0.720100
     10 N            0.8790    -0.3630     0.7110 n          1 KKG      -0.340300
     11 C            2.3020    -0.1770     0.9250 c3         1 KKG      -0.075000
     12 O            2.4460    -0.0940    -1.4510 o          1 KKG      -0.817800
     13 C8          -1.2900     0.4490     0.1520 ca         1 KKG      -0.202600
     14 C7          -2.2050     1.4820    -0.0790 ca         1 KKG      -0.054000
     15 H1           1.0980    -2.4140     0.7550 h5         1 KKG       0.041800
     16 H2          -3.3560    -2.2090    -0.2790 ha         1 KKG       0.136000
     17 H3          -4.9670    -0.3770    -0.6720 ha         1 KKG       0.114000
     18 H4          -4.2280     1.9840    -0.5470 ha         1 KKG       0.118000
     19 H6           2.6920    -1.0810     1.3970 h1         1 KKG       0.044200
     20 H7           2.4590     0.6380     1.6290 h1         1 KKG       0.044200
     21 H8          -1.8750     2.5100    -0.0220 ha         1 KKG       0.145000
     22 O2           0.5720     1.8750     0.5160 o          1 KKG      -0.610500
@<TRIPOS>BOND
     1     1     7 1   
     2     1    11 1   
     3     1    12 1   
     4     2     8 2   
     5     2    10 1   
     6     2    15 1   
     7     3     4 ar  
     8     3     8 1   
     9     3    13 ar  
    10     4     5 ar  
    11     4    16 1   
    12     5     6 ar  
    13     5    17 1   
    14     6    14 ar  
    15     6    18 1   
    16     9    10 1   
    17     9    13 1   
    18     9    22 2   
    19    10    11 1   
    20    11    19 1   
    21    11    20 1   
    22    13    14 ar  
    23    14    21 1   
@<TRIPOS>SUBSTRUCTURE
     1 KKG         1 TEMP              0 ****  ****    0 ROOT
