@<TRIPOS>MOLECULE
KKI
   50    53     1     0     0
SMALL
abcg2


@<TRIPOS>ATOM
      1 C10         -5.3780   -55.4560    37.6150 ca         1 KKI      -0.208000
      2 C11         -4.4290   -55.1750    36.6490 ca         1 KKI      -0.010000
      3 C12         -1.3460   -45.5430    34.6610 c5         1 KKI      -0.055400
      4 C13         -4.1830   -53.8510    36.3040 ca         1 KKI      -0.116000
      5 C14         -3.3490   -53.5630    35.1900 cg         1 KKI       0.341000
      6 C15         -2.0970   -44.7130    35.7120 c5         1 KKI       0.147800
      7 C16         -2.4230   -46.9490    36.3250 c5         1 KKI       0.082500
      8 C19         -1.6480   -45.7150    32.1420 ca         1 KKI      -0.108000
      9 C21         -1.2970   -43.8130    30.7070 ca         1 KKI      -0.110000
     10 C01         -2.0290   -46.9000    34.8210 c5         1 KKI      -0.098400
     11 C02         -0.9770   -43.0490    31.8230 ca         1 KKI      -0.107000
     12 C03         -0.9970   -43.6180    33.0880 ca         1 KKI      -0.108000
     13 C04         -5.4480   -49.2770    36.2320 c6         1 KKI       0.092500
     14 C05         -5.5980   -50.5040    37.1170 c6         1 KKI       0.192300
     15 C06         -3.2620   -50.9790    36.8240 c6         1 KKI       0.192300
     16 C07         -3.0950   -49.7570    35.9410 c6         1 KKI       0.092500
     17 C08         -4.8690   -52.8200    36.9910 ca         1 KKI       0.635900
     18 C09         -6.0630   -54.3850    38.1660 ca         1 KKI       0.398900
     19 C18         -1.3400   -44.9600    33.2720 ca         1 KKI      -0.064300
     20 C20         -1.6280   -45.1490    30.8720 ca         1 KKI      -0.107000
     21 N22         -2.2690   -45.5980    36.8530 n7         1 KKI      -0.815400
     22 N23         -4.0930   -48.7580    36.2740 n          1 KKI      -0.425800
     23 N24         -4.6190   -51.5000    36.7170 nh         1 KKI      -0.768300
     24 N25         -5.8120   -53.1160    37.8770 nb         1 KKI      -0.737000
     25 N26         -2.6990   -53.3300    34.2660 n1         1 KKI      -0.465000
     26 O27         -4.7770   -46.6450    36.6560 o          1 KKI      -0.567100
     27 H1          -5.6030   -56.4710    37.9070 ha         1 KKI       0.133000
     28 H2          -3.9040   -55.9710    36.1380 ha         1 KKI       0.129000
     29 H4          -1.5720   -43.8060    36.0130 h1         1 KKI       0.065700
     30 H5          -3.0720   -44.4130    35.3140 h1         1 KKI       0.065700
     31 H6          -1.7570   -47.6150    36.8750 h1         1 KKI       0.054700
     32 H7          -1.9050   -46.7620    32.2410 ha         1 KKI       0.110000
     33 H8          -1.2840   -43.3700    29.7200 ha         1 KKI       0.113000
     34 H9          -2.9220   -46.9420    34.1900 hc         1 KKI       0.058700
     35 H10         -1.3940   -47.7380    34.5340 hc         1 KKI       0.058700
     36 H11         -0.7120   -42.0050    31.7090 ha         1 KKI       0.113000
     37 H12         -0.7370   -43.0070    33.9440 ha         1 KKI       0.110000
     38 H13         -6.1430   -48.5080    36.5570 h1         1 KKI       0.061700
     39 H14         -5.7000   -49.5450    35.2000 h1         1 KKI       0.061700
     40 H15         -5.4790   -50.2250    38.1710 h1         1 KKI       0.057200
     41 H16         -6.6020   -50.9060    36.9920 h1         1 KKI       0.057200
     42 H17         -2.5240   -51.7240    36.5390 h1         1 KKI       0.057200
     43 H18         -3.0570   -50.7010    37.8670 h1         1 KKI       0.057200
     44 H19         -3.1960   -50.0480    34.8900 h1         1 KKI       0.061700
     45 H20         -2.0890   -49.3740    36.0780 h1         1 KKI       0.061700
     46 H21         -6.8520   -54.5590    38.8900 h4         1 KKI       0.023100
     47 H22         -1.8730   -45.7580    30.0120 ha         1 KKI       0.113000
     48 H23         -1.4300   -45.5690    37.4170 hn         1 KKI       0.405000
     49 C17         -3.8670   -47.4320    36.4510 c          1 KKI       0.614100
     50 H3          -0.3060   -45.6360    34.9980 hc         1 KKI       0.053700
@<TRIPOS>BOND
     1     1     2 ar  
     2     1    18 ar  
     3     1    27 1   
     4     2     4 ar  
     5     2    28 1   
     6     3     6 1   
     7     3    10 1   
     8     3    19 1   
     9     3    50 1   
    10     4     5 1   
    11     4    17 ar  
    12     5    25 3   
    13     6    21 1   
    14     6    29 1   
    15     6    30 1   
    16     7    10 1   
    17     7    21 1   
    18     7    31 1   
    19     7    49 1   
    20     8    19 ar  
    21     8    20 ar  
    22     8    32 1   
    23     9    11 ar  
    24     9    20 ar  
    25     9    33 1   
    26    10    34 1   
    27    10    35 1   
    28    11    12 ar  
    29    11    36 1   
    30    12    19 ar  
    31    12    37 1   
    32    13    14 1   
    33    13    22 1   
    34    13    38 1   
    35    13    39 1   
    36    14    23 1   
    37    14    40 1   
    38    14    41 1   
    39    15    16 1   
    40    15    23 1   
    41    15    42 1   
    42    15    43 1   
    43    16    22 1   
    44    16    44 1   
    45    16    45 1   
    46    17    23 1   
    47    17    24 ar  
    48    18    24 ar  
    49    18    46 1   
    50    20    47 1   
    51    21    48 1   
    52    22    49 1   
    53    26    49 2   
@<TRIPOS>SUBSTRUCTURE
     1 KKI         1 TEMP              0 ****  ****    0 ROOT
