@<TRIPOS>MOLECULE
KKI
   50    53     1     0     0
SMALL
No Charge or Current Charge


@<TRIPOS>ATOM
      1 C10         -5.5870   -55.2780    37.9930 ca         1 KKI      -0.208000
      2 C11         -4.8750   -55.2380    36.7850 ca         1 KKI      -0.010000
      3 C12         -1.0970   -45.4610    34.8360 c5         1 KKI      -0.055400
      4 C13         -4.5330   -53.9810    36.2600 ca         1 KKI      -0.116000
      5 C14         -3.8310   -53.8950    35.0150 cg         1 KKI       0.341000
      6 C15         -1.9440   -44.7310    35.9080 c5         1 KKI       0.147800
      7 C16         -2.1670   -47.0290    36.4070 c5         1 KKI       0.082500
      8 C19         -0.9760   -45.6250    32.2900 ca         1 KKI      -0.108000
      9 C21         -1.6520   -43.8160    30.8110 ca         1 KKI      -0.110000
     10 C01         -1.7580   -46.8720    34.8950 c5         1 KKI      -0.098400
     11 C02         -1.9770   -43.0340    31.9290 ca         1 KKI      -0.107000
     12 C03         -1.8060   -43.5480    33.2270 ca         1 KKI      -0.108000
     13 C04         -5.3260   -49.2580    35.6840 c6         1 KKI       0.092500
     14 C05         -5.6300   -50.4290    36.6570 c6         1 KKI       0.192300
     15 C06         -3.2120   -51.0290    36.6510 c6         1 KKI       0.192300
     16 C07         -2.9330   -49.8460    35.6810 c6         1 KKI       0.092500
     17 C08         -4.9170   -52.8230    36.9690 ca         1 KKI       0.635900
     18 C09         -5.9320   -54.0750    38.6250 ca         1 KKI       0.398900
     19 C18         -1.3190   -44.8620    33.4300 ca         1 KKI      -0.064300
     20 C20         -1.1460   -45.1110    30.9940 ca         1 KKI      -0.107000
     21 N22         -1.8710   -45.6880    37.0320 n7         1 KKI      -0.815400
     22 N23         -3.9350   -48.7470    35.8490 n          1 KKI      -0.425800
     23 N24         -4.6160   -51.5210    36.5310 nh         1 KKI      -0.768300
     24 N25         -5.6060   -52.8640    38.1250 nb         1 KKI      -0.737000
     25 N26         -3.2540   -53.8430    34.0010 n1         1 KKI      -0.465000
     26 O27         -4.5970   -46.8630    37.0110 o          1 KKI      -0.567100
     27 H1          -5.8740   -56.2270    38.4380 ha         1 KKI       0.133000
     28 H2          -4.6020   -56.1590    36.2710 ha         1 KKI       0.129000
     29 H4          -1.5270   -43.7510    36.1790 h1         1 KKI       0.065700
     30 H5          -2.9850   -44.5870    35.5810 h1         1 KKI       0.065700
     31 H6          -1.5550   -47.7860    36.9140 h1         1 KKI       0.054700
     32 H7          -0.5690   -46.6270    32.4060 ha         1 KKI       0.110000
     33 H8          -1.7830   -43.4170    29.8080 ha         1 KKI       0.113000
     34 H9          -2.6370   -46.9230    34.2410 hc         1 KKI       0.058700
     35 H10         -1.0720   -47.6610    34.5680 hc         1 KKI       0.058700
     36 H11         -2.3580   -42.0240    31.7920 ha         1 KKI       0.113000
     37 H12         -2.0550   -42.9040    34.0660 ha         1 KKI       0.110000
     38 H13         -6.0620   -48.4570    35.8350 h1         1 KKI       0.061700
     39 H14         -5.4500   -49.6140    34.6520 h1         1 KKI       0.061700
     40 H15         -5.6430   -50.0420    37.6870 h1         1 KKI       0.057200
     41 H16         -6.6370   -50.8140    36.4360 h1         1 KKI       0.057200
     42 H17         -2.4950   -51.8340    36.4350 h1         1 KKI       0.057200
     43 H18         -3.0220   -50.6940    37.6810 h1         1 KKI       0.057200
     44 H19         -2.9940   -50.2180    34.6490 h1         1 KKI       0.061700
     45 H20         -1.9020   -49.5070    35.8290 h1         1 KKI       0.061700
     46 H21         -6.4870   -54.0800    39.5620 h4         1 KKI       0.023100
     47 H22         -0.8820   -45.7180    30.1300 ha         1 KKI       0.113000
     48 H23         -0.9010   -45.6940    37.3700 hn         1 KKI       0.405000
     49 C17         -3.6830   -47.5070    36.5020 c          1 KKI       0.614100
     50 H3          -0.0360   -45.4930    35.1110 hc         1 KKI       0.053700
@<TRIPOS>BOND
     1     1     2 ar  
     2     1    18 ar  
     3     1    27 1   
     4     2     4 ar  
     5     2    28 1   
     6     3     6 1   
     7     3    10 1   
     8     3    19 1   
     9     3    50 1   
    10     4     5 1   
    11     4    17 ar  
    12     5    25 3   
    13     6    21 1   
    14     6    29 1   
    15     6    30 1   
    16     7    10 1   
    17     7    21 1   
    18     7    31 1   
    19     7    49 1   
    20     8    19 ar  
    21     8    20 ar  
    22     8    32 1   
    23     9    11 ar  
    24     9    20 ar  
    25     9    33 1   
    26    10    34 1   
    27    10    35 1   
    28    11    12 ar  
    29    11    36 1   
    30    12    19 ar  
    31    12    37 1   
    32    13    14 1   
    33    13    22 1   
    34    13    38 1   
    35    13    39 1   
    36    14    23 1   
    37    14    40 1   
    38    14    41 1   
    39    15    16 1   
    40    15    23 1   
    41    15    42 1   
    42    15    43 1   
    43    16    22 1   
    44    16    44 1   
    45    16    45 1   
    46    17    23 1   
    47    17    24 ar  
    48    18    24 ar  
    49    18    46 1   
    50    20    47 1   
    51    21    48 1   
    52    22    49 1   
    53    26    49 2   
@<TRIPOS>SUBSTRUCTURE
     1 KKI         1 TEMP              0 ****  ****    0 ROOT
