@<TRIPOS>MOLECULE
KKJ
   47    46     1     0     0
SMALL
No Charge or Current Charge


@<TRIPOS>ATOM
      1 O1           0.7090     1.9870    -0.0700 oh         1 KKJ      -0.688000
      2 C2           0.7300     0.5850     0.2260 c3         1 KKJ       0.181300
      3 C3          -0.5800    -0.0610    -0.3080 c3         1 KKJ      -0.220700
      4 C4          -0.5600    -1.5870    -0.0670 c          1 KKJ       0.714000
      5 O5          -0.5940    -2.3230    -1.0420 o          1 KKJ      -0.734500
      6 O6          -0.5040    -1.9970     1.0830 o          1 KKJ      -0.734500
      7 C7           2.0220    -0.0280    -0.3860 c3         1 KKJ      -0.104400
      8 C8           3.3360     0.5570     0.1870 c3         1 KKJ      -0.069400
      9 C9           4.6000    -0.1130    -0.3970 c3         1 KKJ      -0.077400
     10 C10          5.9120     0.4680     0.1730 c3         1 KKJ      -0.075400
     11 C11          7.1750    -0.2020    -0.4110 c3         1 KKJ      -0.076400
     12 C12          8.4840     0.3780     0.1580 c3         1 KKJ      -0.086100
     13 C13         -1.8680     0.5800     0.2960 c3         1 KKJ      -0.041400
     14 C14         -3.1870    -0.0120    -0.2540 c3         1 KKJ      -0.072400
     15 C15         -4.4440     0.6830     0.3150 c3         1 KKJ      -0.074400
     16 C16         -5.7620     0.0930    -0.2330 c3         1 KKJ      -0.075400
     17 C17         -7.0180     0.7880     0.3360 c3         1 KKJ      -0.076400
     18 C18         -8.3340     0.2000    -0.2100 c3         1 KKJ      -0.086100
     19 HO1          0.5160     2.0650    -1.0280 ho         1 KKJ       0.420000
     20 H2           0.7680     0.4320     1.3150 h1         1 KKJ       0.082700
     21 H3          -0.6150     0.1040    -1.3920 hc         1 KKJ       0.027700
     22 H7           2.0300    -1.1090    -0.2060 hc         1 KKJ       0.053200
     23 H7A          2.0080     0.1070    -1.4750 hc         1 KKJ       0.053200
     24 H8           3.3810     1.6340    -0.0170 hc         1 KKJ       0.034200
     25 H8A          3.3370     0.4370     1.2780 hc         1 KKJ       0.034200
     26 H9           4.5640    -1.1900    -0.1910 hc         1 KKJ       0.036200
     27 H9A          4.5980     0.0050    -1.4880 hc         1 KKJ       0.036200
     28 H10          5.9480     1.5460    -0.0330 hc         1 KKJ       0.033200
     29 H10A         5.9140     0.3510     1.2640 hc         1 KKJ       0.033200
     30 H11          7.1430    -1.2790    -0.2040 hc         1 KKJ       0.035200
     31 H11A         7.1770    -0.0850    -1.5020 hc         1 KKJ       0.035200
     32 H12          8.5620     1.4490    -0.0640 hc         1 KKJ       0.025033
     33 H12A         8.5270     0.2440     1.2460 hc         1 KKJ       0.025033
     34 H12B         9.3500    -0.1280    -0.2850 hc         1 KKJ       0.025033
     35 H13         -1.8520     0.4690     1.3870 hc         1 KKJ       0.026700
     36 H13A        -1.8710     1.6580     0.0930 hc         1 KKJ       0.026700
     37 H14         -3.1920     0.0750    -1.3480 hc         1 KKJ       0.046200
     38 H14A        -3.2380    -1.0820    -0.0180 hc         1 KKJ       0.046200
     39 H15         -4.4390     0.5980     1.4080 hc         1 KKJ       0.027200
     40 H15A        -4.4030     1.7530     0.0760 hc         1 KKJ       0.027200
     41 H16         -5.7680     0.1780    -1.3270 hc         1 KKJ       0.036700
     42 H16A        -5.8050    -0.9770     0.0060 hc         1 KKJ       0.036700
     43 H17         -7.0180     0.7040     1.4290 hc         1 KKJ       0.031200
     44 H17A        -6.9810     1.8590     0.0970 hc         1 KKJ       0.031200
     45 H18         -8.3810     0.3020    -1.3010 hc         1 KKJ       0.024367
     46 H18A        -8.4180    -0.8630     0.0430 hc         1 KKJ       0.024367
     47 H18B        -9.1950     0.7250     0.2210 hc         1 KKJ       0.024367
@<TRIPOS>BOND
     1     1     2 1   
     2     1    19 1   
     3     2     3 1   
     4     2     7 1   
     5     2    20 1   
     6     3     4 1   
     7     3    13 1   
     8     3    21 1   
     9     4     5 1   
    10     4     6 1   
    11     7     8 1   
    12     7    22 1   
    13     7    23 1   
    14     8     9 1   
    15     8    24 1   
    16     8    25 1   
    17     9    10 1   
    18     9    26 1   
    19     9    27 1   
    20    10    11 1   
    21    10    28 1   
    22    10    29 1   
    23    11    12 1   
    24    11    30 1   
    25    11    31 1   
    26    12    32 1   
    27    12    33 1   
    28    12    34 1   
    29    13    14 1   
    30    13    35 1   
    31    13    36 1   
    32    14    15 1   
    33    14    37 1   
    34    14    38 1   
    35    15    16 1   
    36    15    39 1   
    37    15    40 1   
    38    16    17 1   
    39    16    41 1   
    40    16    42 1   
    41    17    18 1   
    42    17    43 1   
    43    17    44 1   
    44    18    45 1   
    45    18    46 1   
    46    18    47 1   
@<TRIPOS>SUBSTRUCTURE
     1 KKJ         1 TEMP              0 ****  ****    0 ROOT
