@<TRIPOS>MOLECULE
KKJ
   47    46     1     0     0
SMALL
abcg2


@<TRIPOS>ATOM
      1 O1           0.6910     1.9850     0.0960 oh         1 KKJ      -0.688000
      2 C2           0.7100     0.5770     0.2810 c3         1 KKJ       0.181300
      3 C3          -0.5660    -0.0900    -0.2520 c3         1 KKJ      -0.220700
      4 C4          -0.5490    -1.5980     0.0760 c          1 KKJ       0.714000
      5 O5          -0.5600    -2.4040    -0.8760 o          1 KKJ      -0.734500
      6 O6          -0.5290    -1.8950     1.2900 o          1 KKJ      -0.734500
      7 C7           1.9720    -0.0310    -0.3260 c3         1 KKJ      -0.104400
      8 C8           3.2710     0.5600     0.2100 c3         1 KKJ      -0.069400
      9 C9           4.5050    -0.0960    -0.3970 c3         1 KKJ      -0.077400
     10 C10          5.8150     0.4660     0.1390 c3         1 KKJ      -0.075400
     11 C11          7.0460    -0.1860    -0.4790 c3         1 KKJ      -0.076400
     12 C12          8.3530     0.3770     0.0610 c3         1 KKJ      -0.086100
     13 C13         -1.8300     0.5550     0.3190 c3         1 KKJ      -0.041400
     14 C14         -3.1210    -0.0190    -0.2540 c3         1 KKJ      -0.072400
     15 C15         -4.3670     0.6640     0.2960 c3         1 KKJ      -0.074400
     16 C16         -5.6640     0.1120    -0.2810 c3         1 KKJ      -0.075400
     17 C17         -6.9100     0.7780     0.2900 c3         1 KKJ      -0.076400
     18 C18         -8.2020     0.2210    -0.2910 c3         1 KKJ      -0.086100
     19 HO1          0.6620     2.1570    -0.8510 ho         1 KKJ       0.420000
     20 H2           0.7410     0.4340     1.3660 h1         1 KKJ       0.082700
     21 H3          -0.5790     0.0280    -1.3440 hc         1 KKJ       0.027700
     22 H7           1.9770    -1.1090    -0.1410 hc         1 KKJ       0.053200
     23 H7A          1.9370     0.0820    -1.4170 hc         1 KKJ       0.053200
     24 H8           3.3020     1.6360     0.0180 hc         1 KKJ       0.034200
     25 H8A          3.2990     0.4440     1.2990 hc         1 KKJ       0.034200
     26 H9           4.4710    -1.1760    -0.2130 hc         1 KKJ       0.036200
     27 H9A          4.4790     0.0230    -1.4860 hc         1 KKJ       0.036200
     28 H10          5.8490     1.5460    -0.0410 hc         1 KKJ       0.033200
     29 H10A         5.8470     0.3410     1.2270 hc         1 KKJ       0.033200
     30 H11          7.0100    -1.2660    -0.3010 hc         1 KKJ       0.035200
     31 H11A         7.0140    -0.0600    -1.5660 hc         1 KKJ       0.035200
     32 H12          8.4310     1.4480    -0.1330 hc         1 KKJ       0.025033
     33 H12A         8.4280     0.2340     1.1410 hc         1 KKJ       0.025033
     34 H12B         9.2180    -0.1050    -0.3960 hc         1 KKJ       0.025033
     35 H13         -1.8310     0.4360     1.4070 hc         1 KKJ       0.026700
     36 H13A        -1.8130     1.6310     0.1280 hc         1 KKJ       0.026700
     37 H14         -3.1070     0.0770    -1.3460 hc         1 KKJ       0.046200
     38 H14A        -3.1840    -1.0920    -0.0470 hc         1 KKJ       0.046200
     39 H15         -4.3830     0.5600     1.3870 hc         1 KKJ       0.027200
     40 H15A        -4.3090     1.7400     0.0990 hc         1 KKJ       0.027200
     41 H16         -5.6570     0.2300    -1.3700 hc         1 KKJ       0.036700
     42 H16A        -5.7140    -0.9670    -0.0960 hc         1 KKJ       0.036700
     43 H17         -6.9160     0.6570     1.3780 hc         1 KKJ       0.031200
     44 H17A        -6.8600     1.8560     0.1070 hc         1 KKJ       0.031200
     45 H18         -8.2410     0.3590    -1.3730 hc         1 KKJ       0.024367
     46 H18A        -8.2920    -0.8500    -0.0960 hc         1 KKJ       0.024367
     47 H18B        -9.0780     0.7090     0.1360 hc         1 KKJ       0.024367
@<TRIPOS>BOND
     1     1     2 1   
     2     1    19 1   
     3     2     3 1   
     4     2     7 1   
     5     2    20 1   
     6     3     4 1   
     7     3    13 1   
     8     3    21 1   
     9     4     5 1   
    10     4     6 1   
    11     7     8 1   
    12     7    22 1   
    13     7    23 1   
    14     8     9 1   
    15     8    24 1   
    16     8    25 1   
    17     9    10 1   
    18     9    26 1   
    19     9    27 1   
    20    10    11 1   
    21    10    28 1   
    22    10    29 1   
    23    11    12 1   
    24    11    30 1   
    25    11    31 1   
    26    12    32 1   
    27    12    33 1   
    28    12    34 1   
    29    13    14 1   
    30    13    35 1   
    31    13    36 1   
    32    14    15 1   
    33    14    37 1   
    34    14    38 1   
    35    15    16 1   
    36    15    39 1   
    37    15    40 1   
    38    16    17 1   
    39    16    41 1   
    40    16    42 1   
    41    17    18 1   
    42    17    43 1   
    43    17    44 1   
    44    18    45 1   
    45    18    46 1   
    46    18    47 1   
@<TRIPOS>SUBSTRUCTURE
     1 KKJ         1 TEMP              0 ****  ****    0 ROOT
