@<TRIPOS>MOLECULE
KKK
   64    68     1     0     0
SMALL
No Charge or Current Charge


@<TRIPOS>ATOM
      1 C1          -0.6640    -2.1610     1.0810 cc         1 KKK       0.395400
      2 N1          -1.9410    -2.5290     0.7050 na         1 KKK      -0.169500
      3 O1          -2.6400     0.1340    -0.5640 os         1 KKK      -0.450000
      4 Cl1         -8.4760     2.6750     1.7580 cl         1 KKK      -0.182000
      5 C2          -0.5440    -4.1610     0.2790 cd         1 KKK       0.217900
      6 N2           0.1990    -3.1350     0.8230 nd         1 KKK      -0.678000
      7 O2          -4.1210    -1.4490    -1.3300 os         1 KKK      -0.458000
      8 Cl2         -4.9550     1.4340    -2.1580 cl         1 KKK      -0.187000
      9 C3          -1.8690    -3.8150     0.2120 cc         1 KKK      -0.229000
     10 N3           5.5410     0.4260     0.3200 nh         1 KKK      -0.777400
     11 O3           0.0420     0.3440    -0.8930 os         1 KKK      -0.335100
     12 C4          -3.1730    -1.7480     0.9440 c3         1 KKK       0.050600
     13 N4           8.4060     0.5470     0.9360 n          1 KKK      -0.415800
     14 O4          10.1380     1.6950    -0.0420 o          1 KKK      -0.607100
     15 C5          -3.7090    -0.7440    -0.1390 c5         1 KKK       0.443300
     16 C6          -2.1110    -0.3410    -1.8370 c5         1 KKK       0.144300
     17 C7          -2.9700    -1.5860    -2.1860 c5         1 KKK       0.134600
     18 C8          -4.9110     0.1230     0.3340 ca         1 KKK      -0.087300
     19 C9          -5.5030     1.1090    -0.5100 ca         1 KKK       0.167000
     20 C10         -6.5890     1.8840    -0.0650 ca         1 KKK      -0.107000
     21 C11         -7.1170     1.7000     1.2150 ca         1 KKK       0.137000
     22 C12         -6.5650     0.7330     2.0600 ca         1 KKK      -0.106000
     23 C13         -5.4800    -0.0470     1.6280 ca         1 KKK      -0.083000
     24 C14         -0.5750    -0.5760    -1.8170 c3         1 KKK       0.151600
     25 C15          1.3960     0.3280    -0.6310 ca         1 KKK       0.114100
     26 C16          1.8950     1.2500     0.3010 ca         1 KKK      -0.141500
     27 C17          3.2660     1.2780     0.6110 ca         1 KKK      -0.113000
     28 C18          4.1630     0.3840    -0.0060 ca         1 KKK       0.242000
     29 C19          3.6560    -0.5440    -0.9420 ca         1 KKK      -0.113000
     30 C20          2.2840    -0.5750    -1.2560 ca         1 KKK      -0.141500
     31 C21          6.4010    -0.7950     0.2120 c6         1 KKK       0.169800
     32 C22          7.6450    -0.7180     1.1430 c6         1 KKK       0.093500
     33 C23          7.5440     1.7460     1.1270 c6         1 KKK       0.093500
     34 C24          6.3020     1.7100     0.1930 c6         1 KKK       0.169800
     35 C25          9.6760     0.6210     0.3200 c          1 KKK       0.609100
     36 C26         10.5000    -0.6570     0.1560 c3         1 KKK      -0.176100
     37 H1          -0.4400    -1.1990     1.5260 h5         1 KKK       0.063100
     38 H2          -0.0880    -5.0960    -0.0230 h4         1 KKK       0.037100
     39 H3          -2.7290    -4.3730    -0.1370 h4         1 KKK       0.163000
     40 H4          -3.9770    -2.4610     1.1610 h1         1 KKK       0.077700
     41 H4A         -2.9970    -1.1730     1.8600 h1         1 KKK       0.077700
     42 H6          -2.2990     0.4470    -2.5770 h1         1 KKK       0.082700
     43 H7          -2.4540    -2.5280    -1.9690 h1         1 KKK       0.067200
     44 H7A         -3.2850    -1.5980    -3.2380 h1         1 KKK       0.067200
     45 H10         -7.0240     2.6300    -0.7230 ha         1 KKK       0.147000
     46 H12         -6.9810     0.5850     3.0540 ha         1 KKK       0.137000
     47 H13         -5.1020    -0.7880     2.3260 ha         1 KKK       0.118000
     48 H14         -0.1800    -0.4340    -2.8320 h1         1 KKK       0.050200
     49 H14A        -0.3710    -1.6120    -1.5220 h1         1 KKK       0.050200
     50 H16          1.2150     1.9440     0.7880 ha         1 KKK       0.123000
     51 H17          3.6320     1.9900     1.3450 ha         1 KKK       0.115500
     52 H19          4.3240    -1.2390    -1.4400 ha         1 KKK       0.115500
     53 H20          1.9330    -1.3020    -1.9820 ha         1 KKK       0.123000
     54 H21          5.8250    -1.6930     0.4800 h1         1 KKK       0.045450
     55 H21A         6.7430    -0.9200    -0.8270 h1         1 KKK       0.045450
     56 H22          8.2680    -1.6070     0.9840 h1         1 KKK       0.062200
     57 H22A         7.3050    -0.7550     2.1870 h1         1 KKK       0.062200
     58 H23          7.2040     1.7750     2.1710 h1         1 KKK       0.062200
     59 H23A         8.1060     2.6730     0.9470 h1         1 KKK       0.062200
     60 H24          6.6370     1.8370    -0.8470 h1         1 KKK       0.045450
     61 H24A         5.6620     2.5710     0.4330 h1         1 KKK       0.045450
     62 H26          9.9610    -1.3470    -0.5030 hc         1 KKK       0.060033
     63 H26A        11.5080    -0.4590    -0.2280 hc         1 KKK       0.060033
     64 H26B        10.5300    -1.1980     1.1080 hc         1 KKK       0.060033
@<TRIPOS>BOND
     1     1     2 1   
     2     1     6 2   
     3     1    37 1   
     4     2     9 1   
     5     2    12 1   
     6     3    15 1   
     7     3    16 1   
     8     4    21 1   
     9     5     6 1   
    10     5     9 2   
    11     5    38 1   
    12     7    15 1   
    13     7    17 1   
    14     8    19 1   
    15     9    39 1   
    16    10    28 1   
    17    10    31 1   
    18    10    34 1   
    19    11    24 1   
    20    11    25 1   
    21    12    15 1   
    22    12    40 1   
    23    12    41 1   
    24    13    32 1   
    25    13    33 1   
    26    13    35 1   
    27    14    35 2   
    28    15    18 1   
    29    16    17 1   
    30    16    24 1   
    31    16    42 1   
    32    17    43 1   
    33    17    44 1   
    34    18    19 ar  
    35    18    23 ar  
    36    19    20 ar  
    37    20    21 ar  
    38    20    45 1   
    39    21    22 ar  
    40    22    23 ar  
    41    22    46 1   
    42    23    47 1   
    43    24    48 1   
    44    24    49 1   
    45    25    26 ar  
    46    25    30 ar  
    47    26    27 ar  
    48    26    50 1   
    49    27    28 ar  
    50    27    51 1   
    51    28    29 ar  
    52    29    30 ar  
    53    29    52 1   
    54    30    53 1   
    55    31    32 1   
    56    31    54 1   
    57    31    55 1   
    58    32    56 1   
    59    32    57 1   
    60    33    34 1   
    61    33    58 1   
    62    33    59 1   
    63    34    60 1   
    64    34    61 1   
    65    35    36 1   
    66    36    62 1   
    67    36    63 1   
    68    36    64 1   
@<TRIPOS>SUBSTRUCTURE
     1 KKK         1 TEMP              0 ****  ****    0 ROOT
