@<TRIPOS>MOLECULE
KKK
   64    68     1     0     0
SMALL
abcg2


@<TRIPOS>ATOM
      1 C1          -0.9820    -2.6550     1.1630 cc         1 KKK       0.395400
      2 N1          -2.2510    -2.7980     0.7160 na         1 KKK      -0.169500
      3 O1          -2.4750    -0.0800    -0.1830 os         1 KKK      -0.450000
      4 CL1         -8.3940     2.5560     1.4300 cl         1 KKK      -0.182000
      5 C2          -0.9910    -4.3870    -0.0700 cd         1 KKK       0.217900
      6 N2          -0.1950    -3.5940     0.7100 nd         1 KKK      -0.678000
      7 O2          -3.8270    -1.5140    -1.2790 os         1 KKK      -0.458000
      8 CL2         -4.8390     1.0860    -2.2240 cl         1 KKK      -0.187000
      9 C3          -2.2710    -3.9140    -0.0760 cc         1 KKK      -0.229000
     10 N3           5.5860     0.5650     0.5420 nh         1 KKK      -0.777400
     11 O3           0.1720     0.6360    -0.7960 os         1 KKK      -0.335100
     12 C4          -3.3610    -1.9410     1.0380 c3         1 KKK       0.050600
     13 N4           8.4100     0.5810     0.7330 n          1 KKK      -0.415800
     14 O4          10.1870     1.5900    -0.2200 o          1 KKK      -0.607100
     15 C5          -3.6180    -0.8800    -0.0520 c5         1 KKK       0.443300
     16 C6          -1.9350    -0.1750    -1.4920 c5         1 KKK       0.144300
     17 C7          -2.7090    -1.3300    -2.1260 c5         1 KKK       0.134600
     18 C8          -4.8340    -0.0160     0.2960 ca         1 KKK      -0.087300
     19 C9          -5.4210     0.8740    -0.6090 ca         1 KKK       0.167000
     20 C10         -6.5100     1.6610    -0.2680 ca         1 KKK      -0.107000
     21 C11         -7.0380     1.5750     1.0080 ca         1 KKK       0.137000
     22 C12         -6.4870     0.7150     1.9380 ca         1 KKK      -0.106000
     23 C13         -5.4010    -0.0600     1.5680 ca         1 KKK      -0.083000
     24 C14         -0.4510    -0.4450    -1.4520 c3         1 KKK       0.151600
     25 C15          1.4960     0.5480    -0.5270 ca         1 KKK       0.114100
     26 C16          2.0540     1.6040     0.1970 ca         1 KKK      -0.141500
     27 C17          3.3920     1.5970     0.5330 ca         1 KKK      -0.113000
     28 C18          4.2370     0.5460     0.1500 ca         1 KKK       0.242000
     29 C19          3.6700    -0.4940    -0.5810 ca         1 KKK      -0.113000
     30 C20          2.3160    -0.5030    -0.9090 ca         1 KKK      -0.141500
     31 C21          6.3390    -0.6590     0.3690 c6         1 KKK       0.169800
     32 C22          7.6480    -0.5810     1.1390 c6         1 KKK       0.093500
     33 C23          7.6620     1.8120     0.8940 c6         1 KKK       0.093500
     34 C24          6.3510     1.7360     0.1320 c6         1 KKK       0.169800
     35 C25          9.6320     0.5640     0.1560 c          1 KKK       0.609100
     36 C26         10.3080    -0.7790     0.0040 c3         1 KKK      -0.176100
     37 H1          -0.6970    -1.8500     1.8250 h5         1 KKK       0.063100
     38 H2          -0.6070    -5.2580    -0.5780 h4         1 KKK       0.037100
     39 H3          -3.1690    -4.2670    -0.5540 h4         1 KKK       0.163000
     40 H4          -4.2510    -2.5560     1.1730 h1         1 KKK       0.077700
     41 H4A         -3.1360    -1.4630     1.9900 h1         1 KKK       0.077700
     42 H6          -2.1120     0.7640    -2.0240 h1         1 KKK       0.082700
     43 H7          -2.1080    -2.2450    -2.1740 h1         1 KKK       0.067200
     44 H7A         -3.0560    -1.0930    -3.1310 h1         1 KKK       0.067200
     45 H10         -6.9390     2.3370    -0.9950 ha         1 KKK       0.147000
     46 H12         -6.8880     0.6430     2.9390 ha         1 KKK       0.137000
     47 H13         -5.0010    -0.7190     2.3230 ha         1 KKK       0.118000
     48 H14         -0.0890    -0.5450    -2.4830 h1         1 KKK       0.050200
     49 H14A        -0.2450    -1.3890    -0.9370 h1         1 KKK       0.050200
     50 H16          1.4250     2.4260     0.5140 ha         1 KKK       0.123000
     51 H17          3.7810     2.4180     1.1220 ha         1 KKK       0.115500
     52 H19          4.2720    -1.3270    -0.9180 ha         1 KKK       0.115500
     53 H20          1.9370    -1.3440    -1.4740 ha         1 KKK       0.123000
     54 H21          5.7630    -1.4980     0.7610 h1         1 KKK       0.045450
     55 H21A         6.5560    -0.8730    -0.6900 h1         1 KKK       0.045450
     56 H22          8.2110    -1.4970     0.9840 h1         1 KKK       0.062200
     57 H22A         7.4330    -0.5090     2.2100 h1         1 KKK       0.062200
     58 H23          7.4590     1.9690     1.9590 h1         1 KKK       0.062200
     59 H23A         8.2500     2.6520     0.5370 h1         1 KKK       0.062200
     60 H24          6.5580     1.7140    -0.9490 h1         1 KKK       0.045450
     61 H24A         5.7810     2.6420     0.3350 h1         1 KKK       0.045450
     62 H26          9.7390    -1.4550    -0.6360 hc         1 KKK       0.060033
     63 H26A        11.2870    -0.6320    -0.4440 hc         1 KKK       0.060033
     64 H26B        10.4410    -1.2740     0.9660 hc         1 KKK       0.060033
@<TRIPOS>BOND
     1     1     2 1   
     2     1     6 2   
     3     1    37 1   
     4     2     9 1   
     5     2    12 1   
     6     3    15 1   
     7     3    16 1   
     8     4    21 1   
     9     5     6 1   
    10     5     9 2   
    11     5    38 1   
    12     7    15 1   
    13     7    17 1   
    14     8    19 1   
    15     9    39 1   
    16    10    28 1   
    17    10    31 1   
    18    10    34 1   
    19    11    24 1   
    20    11    25 1   
    21    12    15 1   
    22    12    40 1   
    23    12    41 1   
    24    13    32 1   
    25    13    33 1   
    26    13    35 1   
    27    14    35 2   
    28    15    18 1   
    29    16    17 1   
    30    16    24 1   
    31    16    42 1   
    32    17    43 1   
    33    17    44 1   
    34    18    19 ar  
    35    18    23 ar  
    36    19    20 ar  
    37    20    21 ar  
    38    20    45 1   
    39    21    22 ar  
    40    22    23 ar  
    41    22    46 1   
    42    23    47 1   
    43    24    48 1   
    44    24    49 1   
    45    25    26 ar  
    46    25    30 ar  
    47    26    27 ar  
    48    26    50 1   
    49    27    28 ar  
    50    27    51 1   
    51    28    29 ar  
    52    29    30 ar  
    53    29    52 1   
    54    30    53 1   
    55    31    32 1   
    56    31    54 1   
    57    31    55 1   
    58    32    56 1   
    59    32    57 1   
    60    33    34 1   
    61    33    58 1   
    62    33    59 1   
    63    34    60 1   
    64    34    61 1   
    65    35    36 1   
    66    36    62 1   
    67    36    63 1   
    68    36    64 1   
@<TRIPOS>SUBSTRUCTURE
     1 KKK         1 TEMP              0 ****  ****    0 ROOT
