@<TRIPOS>MOLECULE
KKL
   35    37     1     0     0
SMALL
No Charge or Current Charge


@<TRIPOS>ATOM
      1 C01        245.7630   228.8280   207.6850 ca         1 KKL      -0.011000
      2 C02        246.3420   228.0720   206.6510 ca         1 KKL      -0.208500
      3 C03        247.3550   227.1530   206.9340 ca         1 KKL       0.355000
      4 C04        247.7950   226.9860   208.2500 ca         1 KKL      -0.208500
      5 C05        247.2250   227.7360   209.2930 ca         1 KKL      -0.011000
      6 C06        246.1950   228.6730   209.0220 ca         1 KKL      -0.224600
      7 C07        245.5450   229.5070   210.1080 c          1 KKL       0.642700
      8 C10        245.6080   229.9190   212.5460 cc         1 KKL       0.549900
      9 C12        245.5350   230.3870   214.5970 cc         1 KKL       0.467500
     10 C15        245.8810   230.3320   216.0250 ca         1 KKL      -0.128500
     11 C16        245.2110   231.1560   216.9560 ca         1 KKL      -0.074500
     12 C17        245.5390   231.1060   218.3230 ca         1 KKL      -0.098000
     13 C18        246.5410   230.2330   218.7780 ca         1 KKL       0.048000
     14 C19        247.2140   229.4090   217.8600 ca         1 KKL      -0.098000
     15 C20        246.8870   229.4570   216.4930 ca         1 KKL      -0.074500
     16 C21        246.8750   230.1820   220.1730 cg         1 KKL      -0.136000
     17 C22        247.1640   230.1460   221.3530 c1         1 KKL      -0.211000
     18 N09        246.0090   229.3090   211.3860 ns         1 KKL      -0.489400
     19 N13        244.6240   231.1500   214.0180 nd         1 KKL      -0.341000
     20 N14        244.6730   230.8440   212.6820 nd         1 KKL      -0.361000
     21 N23        247.9140   226.4200   205.9280 nv         1 KKL      -1.098000
     22 O08        244.6590   230.3070   209.8470 o          1 KKL      -0.521100
     23 O11        246.1910   229.5870   213.7200 os         1 KKL      -0.315000
     24 H1         244.9750   229.5380   207.4370 ha         1 KKL       0.121500
     25 H2         245.9960   228.2070   205.6300 ha         1 KKL       0.118000
     26 H3         248.5850   226.2730   208.4730 ha         1 KKL       0.118000
     27 H4         247.5990   227.5730   210.3010 ha         1 KKL       0.121500
     28 H6         244.4310   231.8410   216.6260 ha         1 KKL       0.133500
     29 H7         245.0130   231.7480   219.0260 ha         1 KKL       0.125500
     30 H8         247.9910   228.7300   218.2040 ha         1 KKL       0.125500
     31 H9         247.4230   228.8090   215.8020 ha         1 KKL       0.133500
     32 H10        247.4190   230.1200   222.3940 ha         1 KKL       0.259000
     33 H11        246.7410   228.6240   211.4770 hn         1 KKL       0.339500
     34 H16        248.5110   225.6290   206.1610 hn         1 KKL       0.474000
     35 H17        247.4690   226.4080   205.0110 hn         1 KKL       0.474000
@<TRIPOS>BOND
     1     1     2 ar  
     2     1     6 ar  
     3     1    24 1   
     4     2     3 ar  
     5     2    25 1   
     6     3     4 ar  
     7     3    21 1   
     8     4     5 ar  
     9     4    26 1   
    10     5     6 ar  
    11     5    27 1   
    12     6     7 1   
    13     7    18 1   
    14     7    22 2   
    15     8    18 1   
    16     8    20 2   
    17     8    23 1   
    18     9    10 1   
    19     9    19 2   
    20     9    23 1   
    21    10    11 ar  
    22    10    15 ar  
    23    11    12 ar  
    24    11    28 1   
    25    12    13 ar  
    26    12    29 1   
    27    13    14 ar  
    28    13    16 1   
    29    14    15 ar  
    30    14    30 1   
    31    15    31 1   
    32    16    17 3   
    33    17    32 1   
    34    18    33 1   
    35    19    20 1   
    36    21    34 1   
    37    21    35 1   
@<TRIPOS>SUBSTRUCTURE
     1 KKL         1 TEMP              0 ****  ****    0 ROOT
