@<TRIPOS>MOLECULE
KKL
   35    37     1     0     0
SMALL
bcc


@<TRIPOS>ATOM
      1 C01        245.4840   228.4330   207.9080 ca         1 KKL      -0.029000
      2 C02        246.0280   227.7260   206.8600 ca         1 KKL      -0.226500
      3 C03        247.3270   227.1950   206.9510 ca         1 KKL       0.216600
      4 C04        248.0440   227.4090   208.1410 ca         1 KKL      -0.226500
      5 C05        247.4830   228.1110   209.1860 ca         1 KKL      -0.029000
      6 C06        246.1890   228.6350   209.0990 ca         1 KKL      -0.224600
      7 C07        245.5390   229.4190   210.1620 c          1 KKL       0.709700
      8 C10        245.7260   230.0150   212.5130 cc         1 KKL       0.594300
      9 C12        245.6900   230.4940   214.5650 cc         1 KKL       0.511900
     10 C15        245.9720   230.3680   215.9820 ca         1 KKL      -0.128500
     11 C16        245.4500   231.3160   216.8640 ca         1 KKL      -0.092500
     12 C17        245.6900   231.2140   218.2190 ca         1 KKL      -0.116000
     13 C18        246.4570   230.1600   218.7240 ca         1 KKL       0.048000
     14 C19        246.9810   229.2150   217.8390 ca         1 KKL      -0.116000
     15 C20        246.7420   229.3180   216.4800 ca         1 KKL      -0.092500
     16 C21        246.6970   230.0500   220.1240 cg         1 KKL      -0.136000
     17 C22        246.8870   229.9600   221.3090 c1         1 KKL      -0.123500
     18 N09        246.0950   229.2880   211.4250 ns         1 KKL      -0.556400
     19 N13        244.9880   231.3810   213.9580 nd         1 KKL      -0.341000
     20 N14        245.0060   231.0800   212.6210 nd         1 KKL      -0.361000
     21 N23        247.8890   226.5370   205.9060 nv         1 KKL      -0.849200
     22 O08        244.5750   230.1290   209.9700 o          1 KKL      -0.521100
     23 O11        246.1900   229.5890   213.6940 os         1 KKL      -0.403800
     24 H1         244.4830   228.8310   207.8040 ha         1 KKL       0.139500
     25 H2         245.4520   227.5770   205.9550 ha         1 KKL       0.136000
     26 H3         249.0520   227.0240   208.2340 ha         1 KKL       0.136000
     27 H4         248.0980   228.2630   210.0650 ha         1 KKL       0.139500
     28 H6         244.8530   232.1360   216.4880 ha         1 KKL       0.151500
     29 H7         245.2800   231.9530   218.8940 ha         1 KKL       0.143500
     30 H8         247.5770   228.3960   218.2170 ha         1 KKL       0.143500
     31 H9         247.1590   228.5700   215.8190 ha         1 KKL       0.151500
     32 H10        247.0480   229.8760   222.3600 ha         1 KKL       0.171500
     33 H11        246.7670   228.5530   211.5940 hn         1 KKL       0.339500
     34 H16        248.7080   225.9770   206.0710 hn         1 KKL       0.418800
     35 H17        247.2920   226.2020   205.1680 hn         1 KKL       0.418800
@<TRIPOS>BOND
     1     1     2 ar  
     2     1     6 ar  
     3     1    24 1   
     4     2     3 ar  
     5     2    25 1   
     6     3     4 ar  
     7     3    21 1   
     8     4     5 ar  
     9     4    26 1   
    10     5     6 ar  
    11     5    27 1   
    12     6     7 1   
    13     7    18 1   
    14     7    22 2   
    15     8    18 1   
    16     8    20 2   
    17     8    23 1   
    18     9    10 1   
    19     9    19 2   
    20     9    23 1   
    21    10    11 ar  
    22    10    15 ar  
    23    11    12 ar  
    24    11    28 1   
    25    12    13 ar  
    26    12    29 1   
    27    13    14 ar  
    28    13    16 1   
    29    14    15 ar  
    30    14    30 1   
    31    15    31 1   
    32    16    17 3   
    33    17    32 1   
    34    18    33 1   
    35    19    20 1   
    36    21    34 1   
    37    21    35 1   
@<TRIPOS>SUBSTRUCTURE
     1 KKL         1 TEMP              0 ****  ****    0 ROOT
