@<TRIPOS>MOLECULE
KKM
   39    41     1     0     0
SMALL
No Charge or Current Charge


@<TRIPOS>ATOM
      1 C10         -3.1720     2.0000    -0.7390 ca         1 KKM      -0.069500
      2 C13          1.2640    -0.6140    -0.0520 cc         1 KKM      -0.373800
      3 C17          5.6990     1.0710    -0.6980 c3         1 KKM       0.146600
      4 C21          1.7940    -1.9150    -0.0490 cc         1 KKM       0.414500
      5 C02         -1.6070    -2.6520    -0.1100 cc         1 KKM       0.215100
      6 C03         -2.5800    -1.6710    -0.1180 cd         1 KKM      -0.330000
      7 C04         -2.2610    -0.2580    -0.0930 cd         1 KKM       0.499500
      8 C05         -3.3480     0.7470    -0.1040 ca         1 KKM      -0.169500
      9 C06         -4.5560     0.5080     0.5920 ca         1 KKM      -0.069500
     10 C07         -5.5740     1.4770     0.6150 ca         1 KKM      -0.122500
     11 C08         -5.3970     2.7040    -0.0420 ca         1 KKM      -0.088000
     12 C09         -4.1930     2.9660    -0.7150 ca         1 KKM      -0.122500
     13 N11         -0.9690     0.2550    -0.0790 nd         1 KKM      -0.657000
     14 C12         -0.0790    -0.7940    -0.0720 cd         1 KKM       0.473500
     15 N15          3.3910     0.4470    -0.0180 ns         1 KKM      -0.507900
     16 C16          4.3940     1.5170     0.0190 c3         1 KKM       0.116700
     17 C19          4.6380     1.9790     1.4720 c3         1 KKM      -0.107100
     18 N23         -0.3060    -2.1650    -0.0820 na         1 KKM       0.081900
     19 N22          0.8930    -2.8840    -0.0670 nd         1 KKM      -0.556100
     20 H101        -2.2470     2.2270    -1.2660 ha         1 KKM       0.129000
     21 H171         5.4920     0.9730    -1.7720 h1         1 KKM       0.029200
     22 H172         6.4620     1.8530    -0.5810 h1         1 KKM       0.029200
     23 H211         2.8380    -2.1980    -0.0350 h4         1 KKM       0.048800
     24 H011        -2.8100    -4.1000    -0.1570 ho         1 KKM       0.497000
     25 H031        -3.6210    -1.9680    -0.1580 ha         1 KKM       0.140000
     26 H061        -4.7100    -0.4250     1.1300 ha         1 KKM       0.129000
     27 H071        -6.5010     1.2770     1.1490 ha         1 KKM       0.117000
     28 H081        -6.1860     3.4530    -0.0220 ha         1 KKM       0.114000
     29 H091        -4.0490     3.9200    -1.2170 ha         1 KKM       0.117000
     30 H151         3.7350    -0.5030    -0.0170 hn         1 KKM       0.318500
     31 H161         4.0020     2.3770    -0.5410 h1         1 KKM       0.077700
     32 H181         7.0150    -0.3890    -0.6500 ho         1 KKM       0.444000
     33 H192         5.3700     2.7940     1.4990 hc         1 KKM       0.044367
     34 H193         3.7080     2.3430     1.9230 hc         1 KKM       0.044367
     35 H191         5.0180     1.1540     2.0870 hc         1 KKM       0.044367
     36 C14          2.0290     0.6370    -0.0360 c          1 KKM       0.656300
     37 O01         -1.8370    -3.9800    -0.1360 oh         1 KKM      -0.486100
     38 O18          6.1770    -0.1840    -0.1780 oh         1 KKM      -0.669000
     39 O20          1.5430     1.7570    -0.0410 o          1 KKM      -0.600100
@<TRIPOS>BOND
     1     1     8 ar  
     2     1    12 ar  
     3     1    20 1   
     4     2     4 1   
     5     2    14 2   
     6     2    36 1   
     7     3    16 1   
     8     3    21 1   
     9     3    22 1   
    10     3    38 1   
    11     4    19 2   
    12     4    23 1   
    13     5     6 2   
    14     5    18 1   
    15     5    37 1   
    16     6     7 1   
    17     6    25 1   
    18     7     8 1   
    19     7    13 2   
    20     8     9 ar  
    21     9    10 ar  
    22     9    26 1   
    23    10    11 ar  
    24    10    27 1   
    25    11    12 ar  
    26    11    28 1   
    27    12    29 1   
    28    13    14 1   
    29    14    18 1   
    30    15    16 1   
    31    15    30 1   
    32    15    36 1   
    33    16    17 1   
    34    16    31 1   
    35    17    33 1   
    36    17    34 1   
    37    17    35 1   
    38    18    19 1   
    39    24    37 1   
    40    32    38 1   
    41    36    39 2   
@<TRIPOS>SUBSTRUCTURE
     1 KKM         1 TEMP              0 ****  ****    0 ROOT
