@<TRIPOS>MOLECULE
KKM
   39    41     1     0     0
SMALL
bcc


@<TRIPOS>ATOM
      1 C10         -3.0270     2.0550    -0.3730 ca         1 KKM      -0.087500
      2 C13          1.3160    -0.6770    -0.1250 cc         1 KKM      -0.373800
      3 C17          5.6650     1.0840    -0.7130 c3         1 KKM       0.123400
      4 C21          1.7480    -2.0140    -0.1120 cc         1 KKM       0.414500
      5 C02         -1.6120    -2.5900    -0.0260 cc         1 KKM       0.265800
      6 C03         -2.6230    -1.6670    -0.0200 cd         1 KKM      -0.413300
      7 C04         -2.2950    -0.2930    -0.0360 cd         1 KKM       0.564800
      8 C05         -3.3510     0.7410    -0.0280 ca         1 KKM      -0.169500
      9 C06         -4.6690     0.4460     0.3230 ca         1 KKM      -0.087500
     10 C07         -5.6390     1.4370     0.3230 ca         1 KKM      -0.140500
     11 C08         -5.3080     2.7380    -0.0310 ca         1 KKM      -0.106000
     12 C09         -3.9980     3.0430    -0.3790 ca         1 KKM      -0.140500
     13 N11         -1.0510     0.1360    -0.0730 nd         1 KKM      -0.657000
     14 C12         -0.0780    -0.7680    -0.0900 cd         1 KKM       0.473500
     15 N15          3.4330     0.4120    -0.0620 ns         1 KKM      -0.574900
     16 C16          4.3680     1.5210    -0.0530 c3         1 KKM       0.116700
     17 C19          4.5790     2.0670     1.3570 c3         1 KKM      -0.107100
     18 N23         -0.3420    -2.1250    -0.0570 na         1 KKM       0.031200
     19 N22          0.7610    -2.8850    -0.0720 nd         1 KKM      -0.556100
     20 H101        -2.0070     2.2970    -0.6410 ha         1 KKM       0.147000
     21 H171         5.4550     0.7930    -1.7490 h1         1 KKM       0.029200
     22 H172         6.3450     1.9440    -0.7470 h1         1 KKM       0.029200
     23 H211         2.7610    -2.3870    -0.1410 h4         1 KKM       0.048800
     24 H011        -2.6500    -4.1660     0.0190 ho         1 KKM       0.458000
     25 H031        -3.6470    -2.0120    -0.0200 ha         1 KKM       0.158000
     26 H061        -4.9540    -0.5550     0.6180 ha         1 KKM       0.147000
     27 H071        -6.6540     1.1900     0.6030 ha         1 KKM       0.135000
     28 H081        -6.0660     3.5100    -0.0340 ha         1 KKM       0.132000
     29 H091        -3.7300     4.0540    -0.6550 ha         1 KKM       0.135000
     30 H151         3.8090    -0.4870     0.1960 hn         1 KKM       0.318500
     31 H161         3.9500     2.3120    -0.6780 h1         1 KKM       0.077700
     32 H181         6.9170    -0.3860    -0.4990 ho         1 KKM       0.405000
     33 H192         5.2710     2.9100     1.3440 hc         1 KKM       0.044367
     34 H193         3.6360     2.4170     1.7760 hc         1 KKM       0.044367
     35 H191         4.9840     1.3050     2.0220 hc         1 KKM       0.044367
     36 C14          2.1000     0.5640    -0.1850 c          1 KKM       0.723300
     37 O01         -1.7210    -3.8970    -0.0120 oh         1 KKM      -0.447100
     38 O18          6.2150     0.0130     0.0230 oh         1 KKM      -0.606800
     39 O20          1.5680     1.6550    -0.3530 o          1 KKM      -0.600100
@<TRIPOS>BOND
     1     1     8 ar  
     2     1    12 ar  
     3     1    20 1   
     4     2     4 1   
     5     2    14 2   
     6     2    36 1   
     7     3    16 1   
     8     3    21 1   
     9     3    22 1   
    10     3    38 1   
    11     4    19 2   
    12     4    23 1   
    13     5     6 2   
    14     5    18 1   
    15     5    37 1   
    16     6     7 1   
    17     6    25 1   
    18     7     8 1   
    19     7    13 2   
    20     8     9 ar  
    21     9    10 ar  
    22     9    26 1   
    23    10    11 ar  
    24    10    27 1   
    25    11    12 ar  
    26    11    28 1   
    27    12    29 1   
    28    13    14 1   
    29    14    18 1   
    30    15    16 1   
    31    15    30 1   
    32    15    36 1   
    33    16    17 1   
    34    16    31 1   
    35    17    33 1   
    36    17    34 1   
    37    17    35 1   
    38    18    19 1   
    39    24    37 1   
    40    32    38 1   
    41    36    39 2   
@<TRIPOS>SUBSTRUCTURE
     1 KKM         1 TEMP              0 ****  ****    0 ROOT
