@<TRIPOS>MOLECULE
KKN
   17    18     1     0     0
SMALL
No Charge or Current Charge


@<TRIPOS>ATOM
      1 O01          2.7880    -0.4600     0.0190 os         1 KKN      -0.274000
      2 C02          1.7050    -1.3450    -0.0200 cc         1 KKN       0.208900
      3 C03          0.4350    -0.8220    -0.0280 cd         1 KKN      -0.000900
      4 C04          0.2350     0.5430     0.0020 cd         1 KKN       0.003000
      5 C05          1.2960     1.4630     0.0420 cd         1 KKN      -0.186000
      6 C06          2.5760     0.9290     0.0500 cc         1 KKN       0.229900
      7 C07         -1.1060     0.7560    -0.0150 cc         1 KKN      -0.238400
      8 C08         -1.7270    -0.5840    -0.0570 c          1 KKN       0.655300
      9 O09         -2.9250    -0.8320    -0.0820 o          1 KKN      -0.474000
     10 O10         -0.7300    -1.5440    -0.0640 os         1 KKN      -0.308200
     11 C11         -1.9310     2.0180     0.0030 c3         1 KKN      -0.012900
     12 H1           1.9840    -2.3900    -0.0400 h4         1 KKN       0.065100
     13 H2           1.1350     2.5340     0.0650 ha         1 KKN       0.143000
     14 H3           3.4960     1.4960     0.0790 h4         1 KKN       0.047100
     15 H5          -2.5720     2.0780    -0.8860 hc         1 KKN       0.046700
     16 H6          -2.5780     2.0500     0.8880 hc         1 KKN       0.046700
     17 H7          -1.2970     2.9110     0.0180 hc         1 KKN       0.046700
@<TRIPOS>BOND
     1     1     2 1   
     2     1     6 1   
     3     2     3 2   
     4     2    12 1   
     5     3     4 1   
     6     3    10 1   
     7     4     5 1   
     8     4     7 2   
     9     5     6 2   
    10     5    13 1   
    11     6    14 1   
    12     7     8 1   
    13     7    11 1   
    14     8     9 2   
    15     8    10 1   
    16    11    15 1   
    17    11    16 1   
    18    11    17 1   
@<TRIPOS>SUBSTRUCTURE
     1 KKN         1 TEMP              0 ****  ****    0 ROOT
