@<TRIPOS>MOLECULE
KKN
   17    18     1     0     0
SMALL
bcc


@<TRIPOS>ATOM
      1 O01          2.7550    -0.4590     0.0200 os         1 KKN      -0.362800
      2 C02          1.7020    -1.3030    -0.0180 cc         1 KKN       0.318600
      3 C03          0.4640    -0.8020    -0.0270 cd         1 KKN      -0.066200
      4 C04          0.1980     0.6080     0.0030 cd         1 KKN       0.003000
      5 C05          1.3470     1.4510     0.0420 cd         1 KKN      -0.269300
      6 C06          2.5600     0.8670     0.0480 cc         1 KKN       0.339600
      7 C07         -1.1530     0.7720    -0.0150 cc         1 KKN      -0.238400
      8 C08         -1.7280    -0.5530    -0.0570 c          1 KKN       0.730800
      9 O09         -2.8710    -0.9300    -0.0840 o          1 KKN      -0.549500
     10 O10         -0.6950    -1.4860    -0.0630 os         1 KKN      -0.308200
     11 C11         -1.9720     2.0120     0.0020 c3         1 KKN      -0.012900
     12 H1           1.9800    -2.3460    -0.0390 h4         1 KKN       0.065100
     13 H2           1.2790     2.5280     0.0660 ha         1 KKN       0.161000
     14 H3           3.4930     1.4110     0.0760 h4         1 KKN       0.047100
     15 H5          -2.6150     2.0790    -0.8770 hc         1 KKN       0.046700
     16 H6          -2.6200     2.0510     0.8790 hc         1 KKN       0.046700
     17 H7          -1.3410     2.8990     0.0180 hc         1 KKN       0.046700
@<TRIPOS>BOND
     1     1     2 1   
     2     1     6 1   
     3     2     3 2   
     4     2    12 1   
     5     3     4 1   
     6     3    10 1   
     7     4     5 1   
     8     4     7 2   
     9     5     6 2   
    10     5    13 1   
    11     6    14 1   
    12     7     8 1   
    13     7    11 1   
    14     8     9 2   
    15     8    10 1   
    16    11    15 1   
    17    11    16 1   
    18    11    17 1   
@<TRIPOS>SUBSTRUCTURE
     1 KKN         1 TEMP              0 ****  ****    0 ROOT
