@<TRIPOS>MOLECULE
KKO
   55    58     1     0     0
SMALL
No Charge or Current Charge


@<TRIPOS>ATOM
      1 N3         -10.9910    13.4020     9.3720 ns         1 KKO      -0.484900
      2 C4         -11.2510    14.7320     8.8370 c3         1 KKO       0.176300
      3 C5         -12.0480    15.5480     9.8130 cc         1 KKO      -0.260300
      4 C6         -13.3790    15.4270    10.1270 cd         1 KKO      -0.122000
      5 C7         -13.8140    16.3500    11.1130 cd         1 KKO      -0.140000
      6 C8         -12.8180    17.1800    11.5630 cc         1 KKO      -0.233000
      7 C10         -9.9570    11.6760    10.9020 c6         1 KKO       0.083500
      8 N12        -10.6980     9.2650    10.6840 n          1 KKO      -0.403800
      9 C13        -11.0640     9.2210    12.1280 c6         1 KKO       0.090000
     10 C17        -10.5980    13.7990    13.4300 ca         1 KKO      -0.134000
     11 C20        -12.8110    14.6300    14.0270 ca         1 KKO       0.111000
     12 C21        -13.3830    13.4540    13.5130 ca         1 KKO      -0.079000
     13 C22        -12.5620    12.4540    12.9620 ca         1 KKO      -0.116000
     14 C24         -9.9020     8.2600    10.0900 c          1 KKO       0.638700
     15 C26         -8.4650     7.9210     8.1030 ca         1 KKO       0.400900
     16 C28         -9.1830     8.1050     5.9120 ca         1 KKO       0.382900
     17 C11        -10.8170    10.6380    10.1130 c6         1 KKO       0.113000
     18 C14        -10.2750    10.2620    12.9690 c6         1 KKO       0.167800
     19 C16        -11.1660    12.6210    12.9230 ca         1 KKO       0.252000
     20 C18        -11.4120    14.8040    13.9780 ca         1 KKO       0.147000
     21 C2          -9.9680    13.1080    10.2540 c          1 KKO       0.590100
     22 C25         -9.7320     8.2400     8.6060 ca         1 KKO      -0.237600
     23 C29        -10.4890     8.3970     6.3200 ca         1 KKO      -0.255000
     24 C30        -10.7810     8.4570     7.6940 ca         1 KKO       0.199100
     25 N15        -10.3360    11.6270    12.3660 nh         1 KKO      -0.787400
     26 N27         -8.1820     7.8620     6.7830 nb         1 KKO      -0.683000
     27 O1          -9.1220    13.9470    10.5420 o          1 KKO      -0.599100
     28 O31        -12.0610     8.6780     8.1600 os         1 KKO      -0.341100
     29 O33         -9.4020     7.3730    10.7700 o          1 KKO      -0.592100
     30 S9         -11.2900    16.8220    10.7660 ss         1 KKO       0.237000
     31 Cl19       -10.6550    16.2700    14.6030 cl         1 KKO      -0.175000
     32 H3         -11.6820    12.6840     9.2020 hn         1 KKO       0.329500
     33 H4B        -10.2990    15.2330     8.6100 h1         1 KKO       0.068700
     34 H4A        -11.8110    14.6340     7.8970 h1         1 KKO       0.068700
     35 H6         -14.0370    14.6950     9.6670 ha         1 KKO       0.127000
     36 H7         -14.8350    16.3940    11.4800 ha         1 KKO       0.134000
     37 H8         -12.8620    17.9650    12.3060 h4         1 KKO       0.154000
     38 H10         -8.9080    11.3580    10.8070 h1         1 KKO       0.072700
     39 H13A       -12.1390     9.4250    12.2220 h1         1 KKO       0.072700
     40 H13B       -10.8980     8.2180    12.5450 h1         1 KKO       0.072700
     41 H17         -9.5220    13.9330    13.3950 ha         1 KKO       0.145000
     42 H21        -14.4620    13.3190    13.5420 ha         1 KKO       0.133000
     43 H22        -13.0120    11.5520    12.5610 ha         1 KKO       0.126000
     44 H26         -7.6310     7.7230     8.7770 h4         1 KKO       0.031100
     45 H28         -8.9310     8.0490     4.8540 h4         1 KKO       0.022100
     46 H11B       -10.5000    10.6530     9.0620 h1         1 KKO       0.069200
     47 H11A       -11.8750    10.9320    10.1420 h1         1 KKO       0.069200
     48 H14B       -10.6730    10.2750    13.9940 h1         1 KKO       0.054200
     49 H14A        -9.2260     9.9400    13.0420 h1         1 KKO       0.054200
     50 H29        -11.2460     8.5580     5.5600 ha         1 KKO       0.130000
     51 H32C       -14.0940     9.0550     7.8610 h1         1 KKO       0.049700
     52 H32A       -13.0140     9.7830     6.6550 h1         1 KKO       0.049700
     53 H32B       -13.3350     8.0280     6.6270 h1         1 KKO       0.049700
     54 Cl23       -13.8620    15.8590    14.7320 cl         1 KKO      -0.179000
     55 C32        -13.1770     8.8960     7.2800 c3         1 KKO       0.147900
@<TRIPOS>BOND
     1     1     2 1   
     2     1    21 1   
     3     1    32 1   
     4     2     3 1   
     5     2    33 1   
     6     2    34 1   
     7     3     4 2   
     8     3    30 1   
     9     4     5 1   
    10     4    35 1   
    11     5     6 2   
    12     5    36 1   
    13     6    30 1   
    14     6    37 1   
    15     7    17 1   
    16     7    21 1   
    17     7    25 1   
    18     7    38 1   
    19     8     9 1   
    20     8    14 1   
    21     8    17 1   
    22     9    18 1   
    23     9    39 1   
    24     9    40 1   
    25    10    19 ar  
    26    10    20 ar  
    27    10    41 1   
    28    11    12 ar  
    29    11    20 ar  
    30    11    54 1   
    31    12    13 ar  
    32    12    42 1   
    33    13    19 ar  
    34    13    43 1   
    35    14    22 1   
    36    14    29 2   
    37    15    22 ar  
    38    15    26 ar  
    39    15    44 1   
    40    16    23 ar  
    41    16    26 ar  
    42    16    45 1   
    43    17    46 1   
    44    17    47 1   
    45    18    25 1   
    46    18    48 1   
    47    18    49 1   
    48    19    25 1   
    49    20    31 1   
    50    21    27 2   
    51    22    24 ar  
    52    23    24 ar  
    53    23    50 1   
    54    24    28 1   
    55    28    55 1   
    56    51    55 1   
    57    52    55 1   
    58    53    55 1   
@<TRIPOS>SUBSTRUCTURE
     1 KKO         1 TEMP              0 ****  ****    0 ROOT
