@<TRIPOS>MOLECULE
KKO
   55    58     1     0     0
SMALL
abcg2


@<TRIPOS>ATOM
      1 N3         -12.4450    13.2950     9.7710 ns         1 KKO      -0.484900
      2 C4         -12.8720    14.5800     9.2270 c3         1 KKO       0.176300
      3 C5         -12.7700    15.6780    10.2430 cc         1 KKO      -0.260300
      4 C6         -13.7220    16.0720    11.1430 cd         1 KKO      -0.122000
      5 C7         -13.2650    17.0790    12.0380 cd         1 KKO      -0.140000
      6 C8         -11.9690    17.4390    11.8050 cc         1 KKO      -0.233000
      7 C10        -10.9100    11.5940    10.5570 c6         1 KKO       0.083500
      8 N12        -11.1520     9.1560    10.3540 n          1 KKO      -0.403800
      9 C13        -11.9860     9.1010    11.5480 c6         1 KKO       0.090000
     10 C17        -10.4970    13.5300    12.6230 ca         1 KKO      -0.134000
     11 C20        -11.4700    14.8640    14.3840 ca         1 KKO       0.111000
     12 C21        -12.5430    13.9780    14.4410 ca         1 KKO      -0.079000
     13 C22        -12.5990    12.8890    13.5920 ca         1 KKO      -0.116000
     14 C24        -10.2930     8.1620    10.0490 c          1 KKO       0.638700
     15 C26         -8.0950     8.4990     8.9110 ca         1 KKO       0.400900
     16 C28         -7.8160     8.4890     6.6530 ca         1 KKO       0.382900
     17 C11        -11.2760    10.4120     9.6430 c6         1 KKO       0.113000
     18 C14        -11.6190    10.2450    12.4740 c6         1 KKO       0.167800
     19 C16        -11.5790    12.6530    12.6640 ca         1 KKO       0.252000
     20 C18        -10.4460    14.6280    13.4760 ca         1 KKO       0.147000
     21 C2         -11.1690    12.8790     9.7640 c          1 KKO       0.590100
     22 C25         -9.4660     8.3190     8.8050 ca         1 KKO      -0.237600
     23 C29         -9.1710     8.2990     6.4230 ca         1 KKO      -0.255000
     24 C30        -10.0240     8.2130     7.5230 ca         1 KKO       0.199100
     25 N15        -11.7040    11.5450    11.7840 nh         1 KKO      -0.787400
     26 N27         -7.2660     8.5920     7.8660 nb         1 KKO      -0.683000
     27 O1         -10.2650    13.4260     9.1350 o          1 KKO      -0.599100
     28 O31        -11.3540     8.0340     7.4550 os         1 KKO      -0.341100
     29 O33        -10.1590     7.1520    10.7430 o          1 KKO      -0.592100
     30 S9         -11.2970    16.5490    10.4960 ss         1 KKO       0.237000
     31 CL19        -9.0650    15.6820    13.3840 cl         1 KKO      -0.175000
     32 H3         -13.0750    12.8220    10.4030 hn         1 KKO       0.329500
     33 H4B        -12.2670    14.7920     8.3480 h1         1 KKO       0.068700
     34 H4A        -13.9090    14.4790     8.9100 h1         1 KKO       0.068700
     35 H6         -14.7150    15.6430    11.1670 ha         1 KKO       0.127000
     36 H7         -13.8700    17.5100    12.8240 ha         1 KKO       0.134000
     37 H8         -11.3710    18.1640    12.3310 h4         1 KKO       0.154000
     38 H10         -9.8310    11.5470    10.7530 h1         1 KKO       0.072700
     39 H13A       -13.0340     9.1780    11.2440 h1         1 KKO       0.072700
     40 H13B       -11.8280     8.1500    12.0460 h1         1 KKO       0.072700
     41 H17         -9.6790    13.3810    11.9360 ha         1 KKO       0.145000
     42 H21        -13.3450    14.1640    15.1420 ha         1 KKO       0.133000
     43 H22        -13.4550    12.2290    13.6270 ha         1 KKO       0.126000
     44 H26         -7.6490     8.5800     9.8960 h4         1 KKO       0.031100
     45 H28         -7.1400     8.5610     5.8080 h4         1 KKO       0.022100
     46 H11B       -10.6230    10.4290     8.7770 h1         1 KKO       0.069200
     47 H11A       -12.3090    10.5220     9.3040 h1         1 KKO       0.069200
     48 H14B       -12.2990    10.2560    13.3230 h1         1 KKO       0.054200
     49 H14A       -10.6000    10.0890    12.8550 h1         1 KKO       0.054200
     50 H29         -9.5380     8.2230     5.4110 ha         1 KKO       0.130000
     51 H32C       -13.0310     7.8090     6.3540 h1         1 KKO       0.049700
     52 H32A       -11.8060     8.8580     5.5930 h1         1 KKO       0.049700
     53 H32B       -11.5800     7.0850     5.6120 h1         1 KKO       0.049700
     54 CL23       -11.4530    16.2450    15.4410 cl         1 KKO      -0.179000
     55 C32        -11.9700     7.9420     6.1630 c3         1 KKO       0.147900
@<TRIPOS>BOND
     1     1     2 1   
     2     1    21 1   
     3     1    32 1   
     4     2     3 1   
     5     2    33 1   
     6     2    34 1   
     7     3     4 2   
     8     3    30 1   
     9     4     5 1   
    10     4    35 1   
    11     5     6 2   
    12     5    36 1   
    13     6    30 1   
    14     6    37 1   
    15     7    17 1   
    16     7    21 1   
    17     7    25 1   
    18     7    38 1   
    19     8     9 1   
    20     8    14 1   
    21     8    17 1   
    22     9    18 1   
    23     9    39 1   
    24     9    40 1   
    25    10    19 ar  
    26    10    20 ar  
    27    10    41 1   
    28    11    12 ar  
    29    11    20 ar  
    30    11    54 1   
    31    12    13 ar  
    32    12    42 1   
    33    13    19 ar  
    34    13    43 1   
    35    14    22 1   
    36    14    29 2   
    37    15    22 ar  
    38    15    26 ar  
    39    15    44 1   
    40    16    23 ar  
    41    16    26 ar  
    42    16    45 1   
    43    17    46 1   
    44    17    47 1   
    45    18    25 1   
    46    18    48 1   
    47    18    49 1   
    48    19    25 1   
    49    20    31 1   
    50    21    27 2   
    51    22    24 ar  
    52    23    24 ar  
    53    23    50 1   
    54    24    28 1   
    55    28    55 1   
    56    51    55 1   
    57    52    55 1   
    58    53    55 1   
@<TRIPOS>SUBSTRUCTURE
     1 KKO         1 TEMP              0 ****  ****    0 ROOT
