@<TRIPOS>MOLECULE
KKP
   32    34     1     0     0
SMALL
No Charge or Current Charge


@<TRIPOS>ATOM
      1 C10         -2.6490     1.6880    -0.6170 ca         1 KKP      -0.068500
      2 C13          2.2350     0.0350     0.0190 cc         1 KKP      -0.374800
      3 O01         -0.0750    -3.8990    -0.3680 oh         1 KKP      -0.485100
      4 C02         -0.1340    -2.5570    -0.2500 cc         1 KKP       0.215100
      5 C03         -1.2940    -1.8080    -0.2200 cd         1 KKP      -0.330000
      6 C04         -1.2840    -0.3640    -0.0940 cd         1 KKP       0.501500
      7 C05         -2.5600     0.3860    -0.0690 ca         1 KKP      -0.169500
      8 C06         -3.6980    -0.1520     0.5770 ca         1 KKP      -0.068500
      9 C07         -4.9000     0.5740     0.6350 ca         1 KKP      -0.123500
     10 C08         -4.9810     1.8540     0.0640 ca         1 KKP      -0.087000
     11 C09         -3.8530     2.4110    -0.5580 ca         1 KKP      -0.123500
     12 N11         -0.1320     0.4100    -0.0120 nd         1 KKP      -0.658000
     13 C12          0.9610    -0.4250    -0.0490 cd         1 KKP       0.474500
     14 N15          4.0840     1.5260     0.1810 ns         1 KKP      -0.514900
     15 C16          4.8040     2.7970     0.2960 c3         1 KKP       0.100300
     16 O17          1.9990     2.4050     0.1920 o          1 KKP      -0.593100
     17 C18          3.0300    -1.1210    -0.0490 cc         1 KKP       0.412500
     18 N20          1.0330    -1.8090    -0.1540 na         1 KKP       0.081900
     19 N19          2.3570    -2.2560    -0.1540 nd         1 KKP      -0.554100
     20 H101        -1.7870     2.1420    -1.1030 ha         1 KKP       0.129000
     21 H011        -0.9990    -4.2210    -0.4230 ho         1 KKP       0.497000
     22 H031        -2.2460    -2.3150    -0.3070 ha         1 KKP       0.140000
     23 H061        -3.6560    -1.1320     1.0490 ha         1 KKP       0.129000
     24 H071        -5.7690     0.1460     1.1300 ha         1 KKP       0.117000
     25 H081        -5.9120     2.4150     0.1110 ha         1 KKP       0.115000
     26 H091        -3.9100     3.4060    -0.9930 ha         1 KKP       0.117000
     27 H151         4.6250     0.6730     0.1310 hn         1 KKP       0.310500
     28 H163         4.5610     3.4380    -0.5610 h1         1 KKP       0.037367
     29 H161         4.5140     3.3030     1.2260 h1         1 KKP       0.037367
     30 H162         5.8850     2.6060     0.3110 h1         1 KKP       0.037367
     31 H181         4.1100    -1.1770    -0.0260 h4         1 KKP       0.044800
     32 C14          2.7130     1.4160     0.1360 c          1 KKP       0.653300
@<TRIPOS>BOND
     1     1     7 ar  
     2     1    11 ar  
     3     1    20 1   
     4     2    13 2   
     5     2    17 1   
     6     2    32 1   
     7     3     4 1   
     8     3    21 1   
     9     4     5 2   
    10     4    18 1   
    11     5     6 1   
    12     5    22 1   
    13     6     7 1   
    14     6    12 2   
    15     7     8 ar  
    16     8     9 ar  
    17     8    23 1   
    18     9    10 ar  
    19     9    24 1   
    20    10    11 ar  
    21    10    25 1   
    22    11    26 1   
    23    12    13 1   
    24    13    18 1   
    25    14    15 1   
    26    14    27 1   
    27    14    32 1   
    28    15    28 1   
    29    15    29 1   
    30    15    30 1   
    31    16    32 2   
    32    17    19 2   
    33    17    31 1   
    34    18    19 1   
@<TRIPOS>SUBSTRUCTURE
     1 KKP         1 TEMP              0 ****  ****    0 ROOT
