@<TRIPOS>MOLECULE
KKP
   32    34     1     0     0
SMALL
bcc


@<TRIPOS>ATOM
      1 C10         -2.5260     1.7540    -0.1570 ca         1 KKP      -0.086500
      2 C13          2.2850     0.0060     0.0970 cc         1 KKP      -0.374800
      3 O01          0.0330    -3.7990    -0.1200 oh         1 KKP      -0.446100
      4 C02         -0.1480    -2.5020    -0.0620 cc         1 KKP       0.265800
      5 C03         -1.3380    -1.8240    -0.0680 cd         1 KKP      -0.413300
      6 C04         -1.3220    -0.4130    -0.0040 cd         1 KKP       0.566800
      7 C05         -2.5790     0.3660    -0.0070 ca         1 KKP      -0.169500
      8 C06         -3.8260    -0.2430     0.1410 ca         1 KKP      -0.086500
      9 C07         -4.9890     0.5130     0.1350 ca         1 KKP      -0.141500
     10 C08         -4.9250     1.8910    -0.0230 ca         1 KKP      -0.105000
     11 C09         -3.6880     2.5080    -0.1680 ca         1 KKP      -0.141500
     12 N11         -0.2030     0.2780     0.0520 nd         1 KKP      -0.658000
     13 C12          0.9460    -0.3900     0.0560 cd         1 KKP       0.474500
     14 N15          4.1010     1.5510    -0.0190 ns         1 KKP      -0.581900
     15 C16          4.7230     2.8530     0.0210 c3         1 KKP       0.100300
     16 O17          2.0280     2.3390     0.3530 o          1 KKP      -0.593100
     17 C18          3.0010    -1.2020     0.0690 cc         1 KKP       0.412500
     18 N20          0.9880    -1.7700     0.0040 na         1 KKP       0.031200
     19 N19          2.2320    -2.2690     0.0160 nd         1 KKP      -0.554100
     20 H101        -1.5670     2.2400    -0.2700 ha         1 KKP       0.147000
     21 H011        -0.8150    -4.2620    -0.1680 ho         1 KKP       0.458000
     22 H031        -2.2540    -2.3910    -0.1360 ha         1 KKP       0.158000
     23 H061        -3.9130    -1.3130     0.2720 ha         1 KKP       0.147000
     24 H071        -5.9450     0.0220     0.2550 ha         1 KKP       0.135000
     25 H081        -5.8310     2.4820    -0.0320 ha         1 KKP       0.133000
     26 H091        -3.6280     3.5810    -0.2900 ha         1 KKP       0.135000
     27 H151         4.6820     0.7620    -0.2430 hn         1 KKP       0.310500
     28 H163         4.3310     3.5150    -0.7510 h1         1 KKP       0.037367
     29 H161         4.5830     3.3370     0.9880 h1         1 KKP       0.037367
     30 H162         5.7890     2.7270    -0.1450 h1         1 KKP       0.037367
     31 H181         4.0720    -1.3410     0.1010 h4         1 KKP       0.044800
     32 C14          2.7760     1.3890     0.1540 c          1 KKP       0.720300
@<TRIPOS>BOND
     1     1     7 ar  
     2     1    11 ar  
     3     1    20 1   
     4     2    13 2   
     5     2    17 1   
     6     2    32 1   
     7     3     4 1   
     8     3    21 1   
     9     4     5 2   
    10     4    18 1   
    11     5     6 1   
    12     5    22 1   
    13     6     7 1   
    14     6    12 2   
    15     7     8 ar  
    16     8     9 ar  
    17     8    23 1   
    18     9    10 ar  
    19     9    24 1   
    20    10    11 ar  
    21    10    25 1   
    22    11    26 1   
    23    12    13 1   
    24    13    18 1   
    25    14    15 1   
    26    14    27 1   
    27    14    32 1   
    28    15    28 1   
    29    15    29 1   
    30    15    30 1   
    31    16    32 2   
    32    17    19 2   
    33    17    31 1   
    34    18    19 1   
@<TRIPOS>SUBSTRUCTURE
     1 KKP         1 TEMP              0 ****  ****    0 ROOT
