@<TRIPOS>MOLECULE
KKQ
   54    58     1     0     0
SMALL
No Charge or Current Charge


@<TRIPOS>ATOM
      1 C1           2.5410    -0.3800     0.3790 c6         1 KKQ       0.099500
      2 C2           1.7560     0.6670    -0.4540 c6         1 KKQ       0.144800
      3 C3           1.0200    -1.0550    -2.0060 c6         1 KKQ       0.144800
      4 C4           1.7940    -2.1420    -1.2130 c6         1 KKQ       0.099500
      5 C6          -0.8430     2.1220    -0.9790 cc         1 KKQ      -0.177300
      6 C7          -1.9850     2.1600    -0.1770 cd         1 KKQ       0.145400
      7 C8          -1.1270     4.1500    -0.0110 cc         1 KKQ      -0.071000
      8 C9          -0.7950     5.5010     0.2790 cc         1 KKQ      -0.073000
      9 C10          0.3370     6.0310    -0.2920 cd         1 KKQ      -0.104000
     10 C11          1.1410     5.1950    -1.1530 cd         1 KKQ      -0.140000
     11 C14         -2.7600    -0.2770    -0.2010 ca         1 KKQ      -0.090000
     12 C15         -3.7050    -1.2640     0.1300 ca         1 KKQ      -0.095000
     13 C18         -4.1520     1.4040     0.8510 ca         1 KKQ      -0.090000
     14 C20          5.0880    -1.9540     0.8340 ca         1 KKQ      -0.183600
     15 C21          5.5940    -2.6030     1.9820 ca         1 KKQ      -0.050000
     16 C22          6.7480    -2.1220     2.6250 ca         1 KKQ      -0.129000
     17 C24          6.9470    -0.3680     0.9580 ca         1 KKQ      -0.155000
     18 C25          5.7930    -0.8440     0.3160 ca         1 KKQ       0.191000
     19 N1           0.5770     0.0670    -1.1370 n3         1 KKQ      -0.723600
     20 N2           2.9180    -1.6090    -0.3860 n          1 KKQ      -0.403800
     21 N3          -2.1360     3.4200     0.4100 nd         1 KKQ      -0.288600
     22 N4          -0.3540     3.4000    -0.8400 na         1 KKQ       0.135100
     23 C12          0.8250     3.8670    -1.4430 cc         1 KKQ      -0.115000
     24 C13         -2.9690     1.0820     0.1380 ca         1 KKQ      -0.012800
     25 C16         -4.8760    -0.9170     0.8170 ca         1 KKQ      -0.012900
     26 C17         -5.0980     0.4170     1.1820 ca         1 KKQ      -0.095000
     27 Br1         -6.1580    -2.2610     1.2690 br         1 KKQ      -0.105100
     28 C23          7.4230    -1.0000     2.1180 ca         1 KKQ      -0.072000
     29 O1           3.7140    -3.7180     0.0410 o          1 KKQ      -0.587100
     30 F1           5.4030    -0.2450    -0.8320 f          1 KKQ      -0.179000
     31 H1           3.4280     0.1090     0.8020 h1         1 KKQ       0.063700
     32 H2           1.9140    -0.6840     1.2290 h1         1 KKQ       0.063700
     33 H3           1.4440     1.4750     0.2240 h1         1 KKQ       0.044950
     34 H4           2.4380     1.1110    -1.1940 h1         1 KKQ       0.044950
     35 H5           1.6710    -0.6760    -2.8080 h1         1 KKQ       0.044950
     36 H6           0.1540    -1.5290    -2.4910 h1         1 KKQ       0.044950
     37 H7           1.0890    -2.6640    -0.5510 h1         1 KKQ       0.063700
     38 H8           2.1820    -2.8840    -1.9250 h1         1 KKQ       0.063700
     39 H9          -1.0890     0.5380    -2.3720 h1         1 KKQ       0.047700
     40 H10          0.3250     1.5100    -2.6770 h1         1 KKQ       0.047700
     41 H11         -1.4280     6.0850     0.9390 ha         1 KKQ       0.145000
     42 H12          0.6230     7.0590    -0.0940 ha         1 KKQ       0.126000
     43 H13          2.0390     5.6190    -1.5930 ha         1 KKQ       0.132000
     44 H15         -3.5220    -2.3020    -0.1410 ha         1 KKQ       0.128000
     45 H16         -4.3590     2.4290     1.1480 ha         1 KKQ       0.138500
     46 H17          5.0820    -3.4750     2.3870 ha         1 KKQ       0.129000
     47 H18          7.1210    -2.6230     3.5160 ha         1 KKQ       0.124000
     48 H19          7.4780     0.4870     0.5480 ha         1 KKQ       0.134000
     49 H21          1.4060     3.2090    -2.0730 h4         1 KKQ       0.146000
     50 H22         -6.0020     0.6910     1.7210 ha         1 KKQ       0.128000
     51 H23          8.3180    -0.6310     2.6140 ha         1 KKQ       0.121000
     52 C5          -0.2570     1.0490    -1.8690 c3         1 KKQ       0.245000
     53 C19          3.8550    -2.5070     0.1660 c          1 KKQ       0.628700
     54 H14         -1.8600    -0.6010    -0.7020 ha         1 KKQ       0.138500
@<TRIPOS>BOND
     1     1     2 1   
     2     1    20 1   
     3     1    31 1   
     4     1    32 1   
     5     2    19 1   
     6     2    33 1   
     7     2    34 1   
     8     3     4 1   
     9     3    19 1   
    10     3    35 1   
    11     3    36 1   
    12     4    20 1   
    13     4    37 1   
    14     4    38 1   
    15     5     6 2   
    16     5    22 1   
    17     5    52 1   
    18     6    21 1   
    19     6    24 1   
    20     7     8 1   
    21     7    21 2   
    22     7    22 1   
    23     8     9 2   
    24     8    41 1   
    25     9    10 1   
    26     9    42 1   
    27    10    23 2   
    28    10    43 1   
    29    11    12 ar  
    30    11    24 ar  
    31    11    54 1   
    32    12    25 ar  
    33    12    44 1   
    34    13    24 ar  
    35    13    26 ar  
    36    13    45 1   
    37    14    15 ar  
    38    14    18 ar  
    39    14    53 1   
    40    15    16 ar  
    41    15    46 1   
    42    16    28 ar  
    43    16    47 1   
    44    17    18 ar  
    45    17    28 ar  
    46    17    48 1   
    47    18    30 1   
    48    19    52 1   
    49    20    53 1   
    50    22    23 1   
    51    23    49 1   
    52    25    26 ar  
    53    25    27 1   
    54    26    50 1   
    55    28    51 1   
    56    29    53 2   
    57    39    52 1   
    58    40    52 1   
@<TRIPOS>SUBSTRUCTURE
     1 KKQ         1 TEMP              0 ****  ****    0 ROOT
