@<TRIPOS>MOLECULE
KKQ
   54    58     1     0     0
SMALL
abcg2


@<TRIPOS>ATOM
      1 C1           2.3310    -0.6870     0.7090 c6         1 KKQ       0.099500
      2 C2           1.6850     0.4040    -0.1240 c6         1 KKQ       0.144800
      3 C3           0.9110    -1.2440    -1.6840 c6         1 KKQ       0.144800
      4 C4           1.5470    -2.3490    -0.8600 c6         1 KKQ       0.099500
      5 C6          -0.6980     2.0130    -0.8080 cc         1 KKQ      -0.177300
      6 C7          -1.8690     2.1370    -0.0850 cd         1 KKQ       0.145400
      7 C8          -0.9270     4.0440     0.0670 cc         1 KKQ      -0.071000
      8 C9          -0.5380     5.3730     0.3350 cc         1 KKQ      -0.073000
      9 C10          0.6400     5.8360    -0.1710 cd         1 KKQ      -0.104000
     10 C11          1.4620     4.9880    -0.9550 cd         1 KKQ      -0.140000
     11 C14         -2.6180    -0.2380     0.1190 ca         1 KKQ      -0.090000
     12 C15         -3.6210    -1.1800     0.2970 ca         1 KKQ      -0.095000
     13 C18         -4.2310     1.5280     0.3160 ca         1 KKQ      -0.090000
     14 C20          5.0210    -1.7100     0.5200 ca         1 KKQ      -0.183600
     15 C21          5.5670    -2.2950     1.6580 ca         1 KKQ      -0.050000
     16 C22          6.6620    -1.7220     2.2880 ca         1 KKQ      -0.129000
     17 C24          6.7130     0.0230     0.6280 ca         1 KKQ      -0.155000
     18 C25          5.6190    -0.5640     0.0270 ca         1 KKQ       0.191000
     19 N1           0.5420    -0.1180    -0.8460 n3         1 KKQ      -0.723600
     20 N2           2.6800    -1.8230    -0.1210 n          1 KKQ      -0.403800
     21 N3          -2.0020     3.3800     0.4390 nd         1 KKQ      -0.288600
     22 N4          -0.0960     3.2460    -0.7010 na         1 KKQ       0.135100
     23 C12          1.0850     3.7090    -1.2070 cc         1 KKQ      -0.115000
     24 C13         -2.9090     1.1270     0.1130 ca         1 KKQ      -0.012800
     25 C16         -4.9270    -0.7540     0.4810 ca         1 KKQ      -0.012900
     26 C17         -5.2410     0.5980     0.4980 ca         1 KKQ      -0.095000
     27 BR1         -6.2990    -2.0290     0.7230 br         1 KKQ      -0.105100
     28 C23          7.2340    -0.5660     1.7720 ca         1 KKQ      -0.072000
     29 O1           4.1340    -3.3900    -0.8640 o          1 KKQ      -0.587100
     30 F1           5.1030    -0.0020    -1.0800 f          1 KKQ      -0.179000
     31 H1           3.2060    -0.2930     1.2200 h1         1 KKQ       0.063700
     32 H2           1.6290    -1.0190     1.4800 h1         1 KKQ       0.063700
     33 H3           1.3560     1.1940     0.5540 h1         1 KKQ       0.044950
     34 H4           2.4390     0.8420    -0.8010 h1         1 KKQ       0.044950
     35 H5           1.6030    -0.9500    -2.4910 h1         1 KKQ       0.044950
     36 H6           0.0110    -1.6390    -2.1610 h1         1 KKQ       0.044950
     37 H7           0.8170    -2.7600    -0.1550 h1         1 KKQ       0.063700
     38 H8           1.8730    -3.1570    -1.5090 h1         1 KKQ       0.063700
     39 H9          -0.9880     0.4060    -2.1320 h1         1 KKQ       0.047700
     40 H10          0.4840     1.2980    -2.4300 h1         1 KKQ       0.047700
     41 H11         -1.1880     5.9910     0.9380 ha         1 KKQ       0.145000
     42 H12          0.9530     6.8530     0.0240 ha         1 KKQ       0.126000
     43 H13          2.3970     5.3450    -1.3600 ha         1 KKQ       0.132000
     44 H15         -3.3720    -2.2330     0.3000 ha         1 KKQ       0.128000
     45 H16         -4.4760     2.5820     0.3270 ha         1 KKQ       0.138500
     46 H17          5.1240    -3.1990     2.0560 ha         1 KKQ       0.129000
     47 H18          7.0710    -2.1810     3.1780 ha         1 KKQ       0.124000
     48 H19          7.1500     0.9200     0.2090 ha         1 KKQ       0.134000
     49 H21          1.6770     3.0250    -1.7960 h4         1 KKQ       0.146000
     50 H22         -6.2590     0.9330     0.6470 ha         1 KKQ       0.128000
     51 H23          8.0890    -0.1180     2.2590 ha         1 KKQ       0.121000
     52 C5          -0.1520     0.8950    -1.6250 c3         1 KKQ       0.245000
     53 C19          3.8980    -2.3780    -0.2190 c          1 KKQ       0.628700
     54 H14         -1.5920    -0.5720     0.0130 ha         1 KKQ       0.138500
@<TRIPOS>BOND
     1     1     2 1   
     2     1    20 1   
     3     1    31 1   
     4     1    32 1   
     5     2    19 1   
     6     2    33 1   
     7     2    34 1   
     8     3     4 1   
     9     3    19 1   
    10     3    35 1   
    11     3    36 1   
    12     4    20 1   
    13     4    37 1   
    14     4    38 1   
    15     5     6 2   
    16     5    22 1   
    17     5    52 1   
    18     6    21 1   
    19     6    24 1   
    20     7     8 1   
    21     7    21 2   
    22     7    22 1   
    23     8     9 2   
    24     8    41 1   
    25     9    10 1   
    26     9    42 1   
    27    10    23 2   
    28    10    43 1   
    29    11    12 ar  
    30    11    24 ar  
    31    11    54 1   
    32    12    25 ar  
    33    12    44 1   
    34    13    24 ar  
    35    13    26 ar  
    36    13    45 1   
    37    14    15 ar  
    38    14    18 ar  
    39    14    53 1   
    40    15    16 ar  
    41    15    46 1   
    42    16    28 ar  
    43    16    47 1   
    44    17    18 ar  
    45    17    28 ar  
    46    17    48 1   
    47    18    30 1   
    48    19    52 1   
    49    20    53 1   
    50    22    23 1   
    51    23    49 1   
    52    25    26 ar  
    53    25    27 1   
    54    26    50 1   
    55    28    51 1   
    56    29    53 2   
    57    39    52 1   
    58    40    52 1   
@<TRIPOS>SUBSTRUCTURE
     1 KKQ         1 TEMP              0 ****  ****    0 ROOT
