@<TRIPOS>MOLECULE
KKR
   76    81     1     0     0
SMALL
abcg2


@<TRIPOS>ATOM
      1 C1         -31.5370    15.5770    30.4680 c3         1 KKR      -0.076900
      2 C2         -31.4730    14.1470    30.0250 c2         1 KKR      -0.012400
      3 C3         -32.6260    13.2990    30.4640 c3         1 KKR      -0.076900
      4 C4         -30.4290    13.7200    29.2870 ce         1 KKR      -0.339200
      5 C5         -30.1850    12.3730    28.7560 c          1 KKR       0.571300
      6 O6         -30.8400    11.3750    29.0440 o          1 KKR      -0.538100
      7 C7         -28.9960    12.2540    27.8200 c3         1 KKR      -0.162400
      8 C8         -27.7060    12.1170    28.6330 c3         1 KKR      -0.145400
      9 C9         -26.4740    12.0170    27.7420 c          1 KKR       0.604100
     10 O10        -26.5740    12.0870    26.5150 o          1 KKR      -0.607100
     11 N11        -25.2780    11.8570    28.3560 n          1 KKR      -0.421800
     12 C12        -25.0590    11.7820    29.7960 c6         1 KKR       0.100500
     13 C13        -24.2770    10.5230    30.1450 c6         1 KKR       0.144300
     14 N14        -23.0210    10.4790    29.4030 n3         1 KKR      -0.727600
     15 C15        -23.2730    10.5130    27.9630 c6         1 KKR       0.144300
     16 C16        -24.0440    11.7650    27.5810 c6         1 KKR       0.100500
     17 C17        -22.2050     9.3330    29.7840 c3         1 KKR       0.226000
     18 C18        -20.8010     9.4560    29.2850 cc         1 KKR      -0.036600
     19 C19        -20.0230     8.5030    28.7170 cd         1 KKR      -0.299800
     20 C20        -18.7030     8.9670    28.4100 ca         1 KKR       0.166800
     21 N21        -17.7350     8.1990    27.8730 nb         1 KKR      -0.189000
     22 C22        -16.5610     8.8000    27.7090 cp         1 KKR       0.238500
     23 N23        -16.2830    10.0730    28.0130 nb         1 KKR      -0.281000
     24 C24        -17.2300    10.8780    28.5210 ca         1 KKR       0.451900
     25 C25        -18.5170    10.3220    28.7460 ca         1 KKR      -0.336000
     26 S26        -19.9730    10.9790    29.4530 ss         1 KKR       0.102400
     27 N27        -16.8640    12.1570    28.7940 nh         1 KKR      -0.796300
     28 C28        -17.7720    13.2470    29.1230 c6         1 KKR       0.190800
     29 C29        -17.4500    14.4620    28.2590 c6         1 KKR       0.134100
     30 O30        -16.0860    14.8500    28.3730 os         1 KKR      -0.452000
     31 C31        -15.2220    13.7810    27.9890 c6         1 KKR       0.134100
     32 C32        -15.4590    12.5570    28.8540 c6         1 KKR       0.190800
     33 C33        -15.4510     7.9970    27.1410 cp         1 KKR      -0.069500
     34 C34        -15.4850     6.6110    27.2030 ca         1 KKR      -0.105000
     35 C35        -14.4460     5.8120    26.6910 ca         1 KKR      -0.084000
     36 C36        -13.3360     6.3660    26.0860 ca         1 KKR      -0.120000
     37 C37        -13.2960     7.7620    26.0080 ca         1 KKR      -0.045200
     38 N38        -12.3710     8.5990    25.4650 na         1 KKR      -0.078400
     39 N39        -12.7270     9.8980    25.5850 nc         1 KKR      -0.524100
     40 C40        -13.8880     9.9140    26.2150 cd         1 KKR       0.372800
     41 C41        -14.3230     8.5910    26.5250 ca         1 KKR      -0.192900
     42 H11C       -30.6500    16.1390    30.1780 hc         1 KKR       0.053200
     43 H12C       -32.4210    16.0610    30.0410 hc         1 KKR       0.053200
     44 H13C       -31.6530    15.6270    31.5550 hc         1 KKR       0.053200
     45 H31C       -32.7030    12.3760    29.9010 hc         1 KKR       0.053200
     46 H32C       -32.5020    13.0430    31.5220 hc         1 KKR       0.053200
     47 H33C       -33.5560    13.8690    30.3890 hc         1 KKR       0.053200
     48 H4C        -29.6740    14.4530    29.0220 ha         1 KKR       0.178000
     49 H71C       -29.1360    11.3760    27.1920 hc         1 KKR       0.078700
     50 H72C       -28.9310    13.1340    27.1790 hc         1 KKR       0.078700
     51 H81C       -27.5860    12.9720    29.3030 hc         1 KKR       0.062200
     52 H82C       -27.7680    11.2310    29.2700 hc         1 KKR       0.062200
     53 H121       -24.4910    12.6630    30.1120 h1         1 KKR       0.061950
     54 H122       -26.0040    11.7810    30.3280 h1         1 KKR       0.061950
     55 H161       -24.2970    11.7500    26.5260 h1         1 KKR       0.061950
     56 H162       -23.4320    12.6500    27.7860 h1         1 KKR       0.061950
     57 H131       -24.0550    10.5250    31.2130 h1         1 KKR       0.046700
     58 H132       -24.9010     9.6400    29.9290 h1         1 KKR       0.046700
     59 H151       -22.3200    10.5050    27.4340 h1         1 KKR       0.046700
     60 H152       -23.8410     9.6220    27.6450 h1         1 KKR       0.046700
     61 H171       -22.1950     9.2820    30.8760 h1         1 KKR       0.051700
     62 H172       -22.6220     8.3810    29.4190 h1         1 KKR       0.051700
     63 H19        -20.3550     7.4940    28.5190 ha         1 KKR       0.218000
     64 H281       -18.8010    12.9690    28.9200 h1         1 KKR       0.068200
     65 H282       -17.6780    13.5050    30.1830 h1         1 KKR       0.068200
     66 H321       -15.2150    12.7980    29.8950 h1         1 KKR       0.068200
     67 H322       -14.8370    11.7320    28.5280 h1         1 KKR       0.068200
     68 H291       -17.6810    14.2320    27.2110 h1         1 KKR       0.058700
     69 H292       -18.0510    15.3120    28.5790 h1         1 KKR       0.058700
     70 H311       -15.3920    13.5320    26.9330 h1         1 KKR       0.058700
     71 H312       -14.2010    14.1400    28.1120 h1         1 KKR       0.058700
     72 H34        -16.3350     6.1350    27.6690 ha         1 KKR       0.135000
     73 H35        -14.5230     4.7350    26.7770 ha         1 KKR       0.116000
     74 H36        -12.5360     5.7560    25.6900 ha         1 KKR       0.119000
     75 H38        -11.5080     8.3540    25.0080 hn         1 KKR       0.375000
     76 H40        -14.3790    10.8460    26.4270 h4         1 KKR       0.056800
@<TRIPOS>BOND
     1     1     2 1   
     2     1    42 1   
     3     1    43 1   
     4     1    44 1   
     5     2     3 1   
     6     2     4 2   
     7     3    45 1   
     8     3    46 1   
     9     3    47 1   
    10     4     5 1   
    11     4    48 1   
    12     5     6 2   
    13     5     7 1   
    14     7     8 1   
    15     7    49 1   
    16     7    50 1   
    17     8     9 1   
    18     8    51 1   
    19     8    52 1   
    20     9    10 2   
    21     9    11 1   
    22    11    12 1   
    23    11    16 1   
    24    12    13 1   
    25    12    53 1   
    26    12    54 1   
    27    13    14 1   
    28    13    57 1   
    29    13    58 1   
    30    14    15 1   
    31    14    17 1   
    32    15    16 1   
    33    15    59 1   
    34    15    60 1   
    35    16    55 1   
    36    16    56 1   
    37    17    18 1   
    38    17    61 1   
    39    17    62 1   
    40    18    19 2   
    41    18    26 1   
    42    19    20 1   
    43    19    63 1   
    44    20    21 ar  
    45    20    25 ar  
    46    21    22 ar  
    47    22    23 ar  
    48    22    33 1   
    49    23    24 ar  
    50    24    25 ar  
    51    24    27 1   
    52    25    26 1   
    53    27    28 1   
    54    27    32 1   
    55    28    29 1   
    56    28    64 1   
    57    28    65 1   
    58    29    30 1   
    59    29    68 1   
    60    29    69 1   
    61    30    31 1   
    62    31    32 1   
    63    31    70 1   
    64    31    71 1   
    65    32    66 1   
    66    32    67 1   
    67    33    34 ar  
    68    33    41 ar  
    69    34    35 ar  
    70    34    72 1   
    71    35    36 ar  
    72    35    73 1   
    73    36    37 ar  
    74    36    74 1   
    75    37    38 1   
    76    37    41 ar  
    77    38    39 1   
    78    38    75 1   
    79    39    40 2   
    80    40    41 1   
    81    40    76 1   
@<TRIPOS>SUBSTRUCTURE
     1 KKR         1 TEMP              0 ****  ****    0 ROOT
