@<TRIPOS>MOLECULE
KKR
   76    81     1     0     0
SMALL
No Charge or Current Charge


@<TRIPOS>ATOM
      1 C1         -31.5390    15.8680    30.2360 c3         1 KKR      -0.076900
      2 C2         -31.4860    14.4130    29.8050 c2         1 KKR      -0.012400
      3 C3         -32.5810    13.5780    30.4510 c3         1 KKR      -0.076900
      4 C4         -30.5500    13.9530    28.9380 ce         1 KKR      -0.339200
      5 C5         -30.3810    12.5480    28.4460 c          1 KKR       0.571300
      6 O6         -31.1470    11.6410    28.7410 o          1 KKR      -0.538100
      7 C7         -29.1530    12.2720    27.5710 c3         1 KKR      -0.162400
      8 C8         -27.9340    11.8270    28.4280 c3         1 KKR      -0.145400
      9 C9         -26.6350    11.5160    27.6530 c          1 KKR       0.604100
     10 O10        -26.5750    11.6780    26.4400 o          1 KKR      -0.607100
     11 N11        -25.5350    10.9800    28.3600 n          1 KKR      -0.421800
     12 C12        -25.3680    11.2210    29.8300 c6         1 KKR       0.100500
     13 C13        -24.2800    10.3550    30.5220 c6         1 KKR       0.144300
     14 N14        -22.9930    10.3600    29.7830 n3         1 KKR      -0.727600
     15 C15        -23.2190     9.8520    28.4040 c6         1 KKR       0.144300
     16 C16        -24.2590    10.7020    27.6270 c6         1 KKR       0.100500
     17 C17        -21.9250     9.6250    30.5080 c3         1 KKR       0.226000
     18 C18        -20.5700     9.7330    29.8540 cc         1 KKR      -0.036600
     19 C19        -19.8760     8.7580    29.1610 cd         1 KKR      -0.299800
     20 C20        -18.6030     9.1790    28.6480 ca         1 KKR       0.166800
     21 N21        -17.7540     8.3910    27.9750 nb         1 KKR      -0.189000
     22 C22        -16.5850     8.9600    27.5940 cp         1 KKR       0.238500
     23 N23        -16.2440    10.2440    27.8540 nb         1 KKR      -0.281000
     24 C24        -17.1140    11.0260    28.5260 ca         1 KKR       0.451900
     25 C25        -18.3410    10.4910    28.9510 ca         1 KKR      -0.336000
     26 S26        -19.6430    11.2610    29.9100 ss         1 KKR       0.102400
     27 N27        -16.7010    12.3560    28.7570 nh         1 KKR      -0.796300
     28 C28        -17.6520    13.5130    28.7240 c6         1 KKR       0.190800
     29 C29        -16.9870    14.8020    28.1560 c6         1 KKR       0.134100
     30 O30        -15.7360    15.0800    28.8300 os         1 KKR      -0.452000
     31 C31        -14.7760    14.0070    28.6830 c6         1 KKR       0.134100
     32 C32        -15.3300    12.6780    29.2780 c6         1 KKR       0.190800
     33 C33        -15.5950     8.0950    26.8470 cp         1 KKR      -0.069500
     34 C34        -15.7990     6.6860    26.7070 ca         1 KKR      -0.105000
     35 C35        -14.8820     5.8620    26.0150 ca         1 KKR      -0.084000
     36 C36        -13.7270     6.4150    25.4360 ca         1 KKR      -0.120000
     37 C37        -13.5280     7.7920    25.5710 ca         1 KKR      -0.045200
     38 N38        -12.4850     8.5560    25.0880 na         1 KKR      -0.078400
     39 N39        -12.6680     9.9030    25.4290 nc         1 KKR      -0.524100
     40 C40        -13.8220     9.9250    26.1180 cd         1 KKR       0.372800
     41 C41        -14.4070     8.5980    26.2370 ca         1 KKR      -0.192900
     42 H11C       -30.7510    16.4630    29.7600 hc         1 KKR       0.053200
     43 H12C       -32.5000    16.3240    29.9680 hc         1 KKR       0.053200
     44 H13C       -31.4120    15.9630    31.3210 hc         1 KKR       0.053200
     45 H31C       -33.2530    13.1580    29.6940 hc         1 KKR       0.053200
     46 H32C       -32.1540    12.7460    31.0240 hc         1 KKR       0.053200
     47 H33C       -33.1980    14.1620    31.1440 hc         1 KKR       0.053200
     48 H4C        -29.8060    14.6490    28.5540 ha         1 KKR       0.178000
     49 H71C       -29.3920    11.4800    26.8510 hc         1 KKR       0.078700
     50 H72C       -28.8650    13.1910    27.0470 hc         1 KKR       0.078700
     51 H81C       -27.6970    12.5710    29.1980 hc         1 KKR       0.062200
     52 H82C       -28.1740    10.9510    29.0430 hc         1 KKR       0.062200
     53 H121       -25.1130    12.2800    29.9770 h1         1 KKR       0.061950
     54 H122       -26.3150    11.0410    30.3570 h1         1 KKR       0.061950
     55 H161       -24.4830    10.1900    26.6800 h1         1 KKR       0.061950
     56 H162       -23.7950    11.6650    27.3700 h1         1 KKR       0.061950
     57 H131       -24.1370    10.7310    31.5460 h1         1 KKR       0.046700
     58 H132       -24.6580     9.3260    30.6110 h1         1 KKR       0.046700
     59 H151       -22.2830     9.8500    27.8280 h1         1 KKR       0.046700
     60 H152       -23.5740     8.8110    28.4400 h1         1 KKR       0.046700
     61 H171       -21.8330    10.0150    31.5300 h1         1 KKR       0.051700
     62 H172       -22.1890     8.5620    30.5960 h1         1 KKR       0.051700
     63 H19        -20.2640     7.7550    29.0140 ha         1 KKR       0.218000
     64 H281       -18.5250    13.2760    28.0970 h1         1 KKR       0.068200
     65 H282       -18.0240    13.7260    29.7370 h1         1 KKR       0.068200
     66 H321       -15.3620    12.7690    30.3740 h1         1 KKR       0.068200
     67 H322       -14.6150    11.8750    29.0490 h1         1 KKR       0.068200
     68 H291       -16.7960    14.6780    27.0800 h1         1 KKR       0.058700
     69 H292       -17.6640    15.6580    28.2830 h1         1 KKR       0.058700
     70 H311       -14.5490    13.8680    27.6160 h1         1 KKR       0.058700
     71 H312       -13.8430    14.2830    29.1950 h1         1 KKR       0.058700
     72 H34        -16.6770     6.2140    27.1420 ha         1 KKR       0.135000
     73 H35        -15.0710     4.7940    25.9310 ha         1 KKR       0.116000
     74 H36        -13.0150     5.7910    24.9010 ha         1 KKR       0.119000
     75 H38        -11.6810     8.2280    24.5540 hn         1 KKR       0.375000
     76 H40        -14.1760    10.8800    26.4820 h4         1 KKR       0.056800
@<TRIPOS>BOND
     1     1     2 1   
     2     1    42 1   
     3     1    43 1   
     4     1    44 1   
     5     2     3 1   
     6     2     4 2   
     7     3    45 1   
     8     3    46 1   
     9     3    47 1   
    10     4     5 1   
    11     4    48 1   
    12     5     6 2   
    13     5     7 1   
    14     7     8 1   
    15     7    49 1   
    16     7    50 1   
    17     8     9 1   
    18     8    51 1   
    19     8    52 1   
    20     9    10 2   
    21     9    11 1   
    22    11    12 1   
    23    11    16 1   
    24    12    13 1   
    25    12    53 1   
    26    12    54 1   
    27    13    14 1   
    28    13    57 1   
    29    13    58 1   
    30    14    15 1   
    31    14    17 1   
    32    15    16 1   
    33    15    59 1   
    34    15    60 1   
    35    16    55 1   
    36    16    56 1   
    37    17    18 1   
    38    17    61 1   
    39    17    62 1   
    40    18    19 2   
    41    18    26 1   
    42    19    20 1   
    43    19    63 1   
    44    20    21 ar  
    45    20    25 ar  
    46    21    22 ar  
    47    22    23 ar  
    48    22    33 1   
    49    23    24 ar  
    50    24    25 ar  
    51    24    27 1   
    52    25    26 1   
    53    27    28 1   
    54    27    32 1   
    55    28    29 1   
    56    28    64 1   
    57    28    65 1   
    58    29    30 1   
    59    29    68 1   
    60    29    69 1   
    61    30    31 1   
    62    31    32 1   
    63    31    70 1   
    64    31    71 1   
    65    32    66 1   
    66    32    67 1   
    67    33    34 ar  
    68    33    41 ar  
    69    34    35 ar  
    70    34    72 1   
    71    35    36 ar  
    72    35    73 1   
    73    36    37 ar  
    74    36    74 1   
    75    37    38 1   
    76    37    41 ar  
    77    38    39 1   
    78    38    75 1   
    79    39    40 2   
    80    40    41 1   
    81    40    76 1   
@<TRIPOS>SUBSTRUCTURE
     1 KKR         1 TEMP              0 ****  ****    0 ROOT
