@<TRIPOS>MOLECULE
KKS
   47    51     1     0     0
SMALL
abcg2


@<TRIPOS>ATOM
      1 C10         -5.4690    -3.3170    -0.5940 ca         1 KKS      -0.107000
      2 C11         -4.6520    -3.6330     0.4550 ca         1 KKS      -0.096000
      3 C12         -3.3840    -3.0200     0.6010 ca         1 KKS      -0.037000
      4 C02         -2.7260     2.7350     0.2840 cc         1 KKS       0.019900
      5 C03         -2.5480     1.5450    -0.3410 cd         1 KKS      -0.173000
      6 C04         -1.2510     0.9880    -0.5350 cd         1 KKS      -0.100200
      7 C06         -1.6800    -1.4420    -0.1920 ca         1 KKS      -0.067300
      8 C07         -2.9570    -2.0530    -0.3540 ca         1 KKS      -0.021000
      9 C08         -3.8320    -1.7540    -1.4290 ca         1 KKS      -0.106000
     10 C09         -5.0500    -2.3670    -1.5460 ca         1 KKS      -0.103000
     11 C13         -2.5410    -3.3560     1.6830 ca         1 KKS      -0.094000
     12 C14         -1.3160    -2.7640     1.8130 ca         1 KKS      -0.108000
     13 C15         -0.8940    -1.8060     0.8740 ca         1 KKS      -0.103000
     14 C16         -0.1780     1.6910    -0.0780 cc         1 KKS       0.060400
     15 C17          1.2300     1.2580    -0.1500 ca         1 KKS      -0.047800
     16 C18          1.8440     1.0060    -1.3760 ca         1 KKS      -0.095000
     17 C19          3.1650     0.6000    -1.4320 ca         1 KKS      -0.078000
     18 C20          3.9020     0.4430    -0.2600 ca         1 KKS      -0.129500
     19 C21          5.2900     0.0100    -0.3460 cc         1 KKS       0.452000
     20 N22          6.1500    -0.1320     0.6660 na         1 KKS      -0.209700
     21 N23          7.3110    -0.5460     0.1940 nc         1 KKS      -0.198800
     22 N24          7.1690    -0.6520    -1.0680 nd         1 KKS      -0.037000
     23 N25          5.9380    -0.3180    -1.4420 nd         1 KKS      -0.383000
     24 C26          3.2970     0.7070     0.9670 ca         1 KKS      -0.078000
     25 C27          1.9760     1.1150     1.0190 ca         1 KKS      -0.095000
     26 N28         -0.3880     2.8900     0.5590 ns         1 KKS      -0.345100
     27 C29         -1.5900     3.4840     0.7830 c          1 KKS       0.510200
     28 O30         -1.7110     4.5690     1.3550 o          1 KKS      -0.582000
     29 H101        -6.4340    -3.7960    -0.6990 ha         1 KKS       0.115000
     30 H111        -4.9650    -4.3590     1.1960 ha         1 KKS       0.114000
     31 H011        -3.8300     4.1150     0.9390 ho         1 KKS       0.491000
     32 H031        -3.4170     1.0050    -0.6980 ha         1 KKS       0.209000
     33 H052        -1.6770    -0.4030    -2.0960 hc         1 KKS       0.059200
     34 H051        -0.1150    -0.6330    -1.3720 hc         1 KKS       0.059200
     35 H081        -3.5450    -1.0380    -2.1860 ha         1 KKS       0.111000
     36 H091        -5.6990    -2.1200    -2.3770 ha         1 KKS       0.114000
     37 H131        -2.8770    -4.0930     2.4040 ha         1 KKS       0.115000
     38 H141        -0.6640    -3.0270     2.6360 ha         1 KKS       0.113000
     39 H151         0.0800    -1.3470     0.9980 ha         1 KKS       0.109000
     40 H181         1.2920     1.1430    -2.2960 ha         1 KKS       0.130000
     41 H191         3.6230     0.4100    -2.3930 ha         1 KKS       0.130000
     42 H221         6.0310     0.0120     1.6590 hn         1 KKS       0.388000
     43 H261         3.8400     0.5920     1.8960 ha         1 KKS       0.130000
     44 H271         1.5220     1.3030     1.9840 ha         1 KKS       0.130000
     45 H281         0.4240     3.4140     0.8620 hn         1 KKS       0.331500
     46 C05         -1.1510    -0.3880    -1.1410 c3         1 KKS       0.022100
     47 O01         -3.9360     3.2780     0.4630 oh         1 KKS      -0.518100
@<TRIPOS>BOND
     1     1     2 ar  
     2     1    10 ar  
     3     1    29 1   
     4     2     3 ar  
     5     2    30 1   
     6     3     8 ar  
     7     3    11 ar  
     8     4     5 2   
     9     4    27 1   
    10     4    47 1   
    11     5     6 1   
    12     5    32 1   
    13     6    14 2   
    14     6    46 1   
    15     7     8 ar  
    16     7    13 ar  
    17     7    46 1   
    18     8     9 ar  
    19     9    10 ar  
    20     9    35 1   
    21    10    36 1   
    22    11    12 ar  
    23    11    37 1   
    24    12    13 ar  
    25    12    38 1   
    26    13    39 1   
    27    14    15 1   
    28    14    26 1   
    29    15    16 ar  
    30    15    25 ar  
    31    16    17 ar  
    32    16    40 1   
    33    17    18 ar  
    34    17    41 1   
    35    18    19 1   
    36    18    24 ar  
    37    19    20 1   
    38    19    23 2   
    39    20    21 1   
    40    20    42 1   
    41    21    22 2   
    42    22    23 1   
    43    24    25 ar  
    44    24    43 1   
    45    25    44 1   
    46    26    27 1   
    47    26    45 1   
    48    27    28 2   
    49    31    47 1   
    50    33    46 1   
    51    34    46 1   
@<TRIPOS>SUBSTRUCTURE
     1 KKS         1 TEMP              0 ****  ****    0 ROOT
