@<TRIPOS>MOLECULE
KKS
   47    51     1     0     0
SMALL
No Charge or Current Charge


@<TRIPOS>ATOM
      1 C10         -5.4270    -3.3440    -0.4490 ca         1 KKS      -0.107000
      2 C11         -4.5190    -3.7130     0.5530 ca         1 KKS      -0.096000
      3 C12         -3.2590    -3.0910     0.6350 ca         1 KKS      -0.037000
      4 C02         -2.7760     2.8550     0.1120 cc         1 KKS       0.019900
      5 C03         -2.5980     1.5950    -0.4280 cd         1 KKS      -0.173000
      6 C04         -1.2660     1.0310    -0.5400 cd         1 KKS      -0.100200
      7 C06         -1.6070    -1.4700    -0.1820 ca         1 KKS      -0.067300
      8 C07         -2.8900    -2.0820    -0.2940 ca         1 KKS      -0.021000
      9 C08         -3.8220    -1.7250    -1.3000 ca         1 KKS      -0.106000
     10 C09         -5.0780    -2.3510    -1.3740 ca         1 KKS      -0.103000
     11 C13         -2.3710    -3.4830     1.6520 ca         1 KKS      -0.094000
     12 C14         -1.1110    -2.8800     1.7570 ca         1 KKS      -0.108000
     13 C15         -0.7360    -1.8830     0.8470 ca         1 KKS      -0.103000
     14 C16         -0.2220     1.8320    -0.0770 cc         1 KKS       0.060400
     15 C17          1.1530     1.3490    -0.1410 ca         1 KKS      -0.047800
     16 C18          1.8460     1.3250    -1.3640 ca         1 KKS      -0.095000
     17 C19          3.1730     0.8660    -1.4200 ca         1 KKS      -0.078000
     18 C20          3.8360     0.4300    -0.2510 ca         1 KKS      -0.129500
     19 C21          5.2260    -0.0490    -0.3220 cc         1 KKS       0.452000
     20 N22          5.9830    -0.4980     0.7220 na         1 KKS      -0.209700
     21 N23          7.2180    -0.8620     0.2930 nc         1 KKS      -0.198800
     22 N24          7.1970    -0.6320    -0.9910 nd         1 KKS      -0.037000
     23 N25          5.9820    -0.1310    -1.3990 nd         1 KKS      -0.383000
     24 C26          3.1370     0.4710     0.9770 ca         1 KKS      -0.078000
     25 C27          1.8090     0.9310     1.0290 ca         1 KKS      -0.095000
     26 N28         -0.4240     3.0860     0.4650 ns         1 KKS      -0.345100
     27 C29         -1.6420     3.6890     0.6040 c          1 KKS       0.510200
     28 O30         -1.7650     4.8060     1.0890 o          1 KKS      -0.582000
     29 H101        -6.4000    -3.8280    -0.5090 ha         1 KKS       0.115000
     30 H111        -4.7970    -4.4850     1.2680 ha         1 KKS       0.114000
     31 H011        -3.8550     4.3110     0.6480 ho         1 KKS       0.491000
     32 H031        -3.4650     1.0340    -0.7590 ha         1 KKS       0.209000
     33 H052        -1.5680    -0.4150    -2.1030 hc         1 KKS       0.059200
     34 H051        -0.0470    -0.5750    -1.3430 hc         1 KKS       0.059200
     35 H081        -3.6010    -0.9630    -2.0390 ha         1 KKS       0.111000
     36 H091        -5.7810    -2.0640    -2.1520 ha         1 KKS       0.114000
     37 H131        -2.6550    -4.2560     2.3630 ha         1 KKS       0.115000
     38 H141        -0.4250    -3.1860     2.5440 ha         1 KKS       0.113000
     39 H151         0.2460    -1.4270     0.9420 ha         1 KKS       0.109000
     40 H181         1.3520     1.6590    -2.2740 ha         1 KKS       0.130000
     41 H191         3.6840     0.8530    -2.3810 ha         1 KKS       0.130000
     42 H221         5.7040    -0.5670     1.6910 hn         1 KKS       0.388000
     43 H261         3.6110     0.1490     1.9010 ha         1 KKS       0.130000
     44 H271         1.2850     0.9550     1.9820 ha         1 KKS       0.130000
     45 H281         0.3710     3.6230     0.7880 hn         1 KKS       0.331500
     46 C05         -1.0980    -0.3660    -1.1170 c3         1 KKS       0.022100
     47 O01         -4.0010     3.4260     0.2380 oh         1 KKS      -0.518100
@<TRIPOS>BOND
     1     1     2 ar  
     2     1    10 ar  
     3     1    29 1   
     4     2     3 ar  
     5     2    30 1   
     6     3     8 ar  
     7     3    11 ar  
     8     4     5 2   
     9     4    27 1   
    10     4    47 1   
    11     5     6 1   
    12     5    32 1   
    13     6    14 2   
    14     6    46 1   
    15     7     8 ar  
    16     7    13 ar  
    17     7    46 1   
    18     8     9 ar  
    19     9    10 ar  
    20     9    35 1   
    21    10    36 1   
    22    11    12 ar  
    23    11    37 1   
    24    12    13 ar  
    25    12    38 1   
    26    13    39 1   
    27    14    15 1   
    28    14    26 1   
    29    15    16 ar  
    30    15    25 ar  
    31    16    17 ar  
    32    16    40 1   
    33    17    18 ar  
    34    17    41 1   
    35    18    19 1   
    36    18    24 ar  
    37    19    20 1   
    38    19    23 2   
    39    20    21 1   
    40    20    42 1   
    41    21    22 2   
    42    22    23 1   
    43    24    25 ar  
    44    24    43 1   
    45    25    44 1   
    46    26    27 1   
    47    26    45 1   
    48    27    28 2   
    49    31    47 1   
    50    33    46 1   
    51    34    46 1   
@<TRIPOS>SUBSTRUCTURE
     1 KKS         1 TEMP              0 ****  ****    0 ROOT
