@<TRIPOS>MOLECULE
KKT
   47    48     1     0     0
SMALL
bcc


@<TRIPOS>ATOM
      1 CAW         -4.7280     0.1900     1.5140 ca         1 KKT      -0.118000
      2 CAX         -5.8030     1.0600     1.3870 ca         1 KKT      -0.124000
      3 CBA         -6.1970     1.4970     0.1300 ca         1 KKT      -0.116000
      4 CAZ         -5.5120     1.0580    -0.9960 ca         1 KKT      -0.124000
      5 CAY         -4.4420     0.1840    -0.8690 ca         1 KKT      -0.118000
      6 CAV         -4.0420    -0.2580     0.3900 ca         1 KKT      -0.132300
      7 CAU         -2.9110    -1.2420     0.5610 c3         1 KKT       0.132300
      8 NAN         -1.7930    -1.0210    -0.3510 n          1 KKT      -0.398000
      9 CAO         -0.9360     0.0350    -0.1530 cc         1 KKT       0.414600
     10 NAP         -1.2070     0.8830     0.8380 nv         1 KKT      -0.831600
     11 CAM         -1.6030    -1.9320    -1.3800 c          1 KKT       0.837500
     12 OAL         -2.3730    -2.8470    -1.5850 o          1 KKT      -0.625500
     13 NAD         -0.4960    -1.7280    -2.1430 ns         1 KKT      -0.596500
     14 CAE          0.4560    -0.7260    -2.0030 c          1 KKT       0.750700
     15 OAA          1.4030    -0.6820    -2.7770 o          1 KKT      -0.639500
     16 CAF          0.1950     0.1810    -0.9410 cd         1 KKT      -0.255200
     17 NAG          1.0170     1.3060    -0.7290 nh         1 KKT      -0.584300
     18 CAB          1.0750     2.3360    -1.7640 c3         1 KKT       0.188100
     19 SAH          2.3340     1.1200     0.2770 s6         1 KKT       1.207900
     20 OAC          2.7520     2.4580     0.6780 o          1 KKT      -0.611300
     21 OAQ          1.9340     0.1720     1.3080 o          1 KKT      -0.611300
     22 CAI          3.6610     0.3880    -0.6740 c3         1 KKT      -0.210600
     23 CAJ          4.9310     0.2650     0.1570 c3         1 KKT      -0.047400
     24 CAK          6.0170    -0.4810    -0.6110 c3         1 KKT      -0.069400
     25 CAT          7.2920    -0.6320     0.2060 c3         1 KKT      -0.091100
     26 HAW         -4.4190    -0.1410     2.4990 ha         1 KKT       0.137000
     27 HAX         -6.3280     1.3990     2.2710 ha         1 KKT       0.138000
     28 HBA         -7.0320     2.1780     0.0280 ha         1 KKT       0.137000
     29 HAZ         -5.8130     1.3950    -1.9800 ha         1 KKT       0.138000
     30 HAY         -3.9210    -0.1460    -1.7590 ha         1 KKT       0.137000
     31 HAU1        -2.5360    -1.2220     1.5860 h1         1 KKT       0.087200
     32 HAU2        -3.2720    -2.2520     0.3880 h1         1 KKT       0.087200
     33 HAP1        -2.1280     0.9750     1.2340 hn         1 KKT       0.454300
     34 HAP2        -0.6120     1.6910     0.9260 hn         1 KKT       0.454300
     35 HAD         -0.3560    -2.3910    -2.8950 hn         1 KKT       0.349500
     36 HAB1         1.5250     3.2440    -1.3720 h1         1 KKT       0.053367
     37 HAB2         1.6270     2.0130    -2.6470 h1         1 KKT       0.053367
     38 HAB3         0.0540     2.5710    -2.0570 h1         1 KKT       0.053367
     39 HAI1         3.3050    -0.5860    -1.0080 h1         1 KKT       0.102200
     40 HAI2         3.8140     1.0140    -1.5550 h1         1 KKT       0.102200
     41 HAJ1         5.2930     1.2560     0.4370 hc         1 KKT       0.054200
     42 HAJ2         4.7160    -0.2710     1.0850 hc         1 KKT       0.054200
     43 HAK1         5.6430    -1.4680    -0.8980 hc         1 KKT       0.041200
     44 HAK2         6.2350     0.0480    -1.5430 hc         1 KKT       0.041200
     45 HAT1         8.0550    -1.1790    -0.3470 hc         1 KKT       0.033033
     46 HAT2         7.7080     0.3420     0.4720 hc         1 KKT       0.033033
     47 HAT3         7.1020    -1.1740     1.1340 hc         1 KKT       0.033033
@<TRIPOS>BOND
     1     1     2 ar  
     2     1     6 ar  
     3     1    26 1   
     4     2     3 ar  
     5     2    27 1   
     6     3     4 ar  
     7     3    28 1   
     8     4     5 ar  
     9     4    29 1   
    10     5     6 ar  
    11     5    30 1   
    12     6     7 1   
    13     7     8 1   
    14     7    31 1   
    15     7    32 1   
    16     8     9 1   
    17     8    11 1   
    18     9    10 1   
    19     9    16 2   
    20    10    33 1   
    21    10    34 1   
    22    11    12 2   
    23    11    13 1   
    24    13    14 1   
    25    13    35 1   
    26    14    15 2   
    27    14    16 1   
    28    16    17 1   
    29    17    18 1   
    30    17    19 1   
    31    18    36 1   
    32    18    37 1   
    33    18    38 1   
    34    19    20 2   
    35    19    21 2   
    36    19    22 1   
    37    22    23 1   
    38    22    39 1   
    39    22    40 1   
    40    23    24 1   
    41    23    41 1   
    42    23    42 1   
    43    24    25 1   
    44    24    43 1   
    45    24    44 1   
    46    25    45 1   
    47    25    46 1   
    48    25    47 1   
@<TRIPOS>SUBSTRUCTURE
     1 KKT         1 TEMP              0 ****  ****    0 ROOT
