@<TRIPOS>MOLECULE
KKT
   47    48     1     0     0
SMALL
No Charge or Current Charge


@<TRIPOS>ATOM
      1 CAW         -4.9490     0.7080     1.2010 ca         1 KKT      -0.100000
      2 CAX         -5.7840     1.7810     0.8420 ca         1 KKT      -0.106000
      3 CBA         -6.0280     2.0600    -0.5130 ca         1 KKT      -0.098000
      4 CAZ         -5.4380     1.2640    -1.5090 ca         1 KKT      -0.106000
      5 CAY         -4.6030     0.1920    -1.1510 ca         1 KKT      -0.100000
      6 CAV         -4.3500    -0.0900     0.2060 ca         1 KKT      -0.132300
      7 CAU         -3.4360    -1.2500     0.5980 c3         1 KKT       0.132300
      8 NAN         -2.1250    -1.2540    -0.1170 n          1 KKT      -0.331000
      9 CAO         -1.1460    -0.2980     0.1350 cc         1 KKT       0.414600
     10 NAP         -1.4420     0.6630     1.0440 nv         1 KKT      -0.942000
     11 CAM         -1.8830    -2.2800    -1.0450 c          1 KKT       0.628000
     12 OAL         -2.6950    -3.1460    -1.3260 o          1 KKT      -0.550000
     13 NAD         -0.6700    -2.2760    -1.6420 ns         1 KKT      -0.462500
     14 CAE          0.3520    -1.4080    -1.4730 c          1 KKT       0.608200
     15 OAA          1.3900    -1.5380    -2.1010 o          1 KKT      -0.564000
     16 CAF          0.0810    -0.3140    -0.5000 cd         1 KKT      -0.255200
     17 NAG          1.0560     0.6910    -0.2090 nh         1 KKT      -0.584300
     18 CAB          0.9800     2.0100    -0.8670 c3         1 KKT       0.188100
     19 SAH          2.5380     0.3660     0.6610 s6         1 KKT       1.177100
     20 OAC          2.7090     1.4600     1.6230 o          1 KKT      -0.540500
     21 OAQ          2.4640    -1.0210     1.1390 o          1 KKT      -0.540500
     22 CAI          3.8450     0.4830    -0.5780 c3         1 KKT      -0.321400
     23 CAJ          5.2510     0.1690    -0.0140 c3         1 KKT      -0.047400
     24 CAK          6.3520     0.2750    -1.0900 c3         1 KKT      -0.069400
     25 CAT          7.7600    -0.0360    -0.5470 c3         1 KKT      -0.091100
     26 HAW         -4.7730     0.5000     2.2550 ha         1 KKT       0.119000
     27 HAX         -6.2440     2.3940     1.6140 ha         1 KKT       0.120000
     28 HBA         -6.6740     2.8900    -0.7910 ha         1 KKT       0.119000
     29 HAZ         -5.6280     1.4780    -2.5590 ha         1 KKT       0.120000
     30 HAY         -4.1540    -0.4190    -1.9310 ha         1 KKT       0.119000
     31 HAU1        -3.2390    -1.2180     1.6780 h1         1 KKT       0.087200
     32 HAU2        -3.9800    -2.1870     0.4260 h1         1 KKT       0.087200
     33 HAP1        -2.4070     0.9670     1.0970 hn         1 KKT       0.509500
     34 HAP2        -0.7440     1.3930     1.1360 hn         1 KKT       0.509500
     35 HAD         -0.5080    -3.0180    -2.3030 hn         1 KKT       0.349500
     36 HAB1         1.2820     2.8130    -0.1810 h1         1 KKT       0.053367
     37 HAB2         1.6340     2.0370    -1.7480 h1         1 KKT       0.053367
     38 HAB3        -0.0450     2.2140    -1.2000 h1         1 KKT       0.053367
     39 HAI1         3.5760    -0.2260    -1.3680 h1         1 KKT       0.102200
     40 HAI2         3.8070     1.5030    -0.9720 h1         1 KKT       0.102200
     41 HAJ1         5.4810     0.8610     0.8060 hc         1 KKT       0.054200
     42 HAJ2         5.2590    -0.8440     0.4090 hc         1 KKT       0.054200
     43 HAK1         6.1260    -0.4170    -1.9110 hc         1 KKT       0.041200
     44 HAK2         6.3480     1.2870    -1.5150 hc         1 KKT       0.041200
     45 HAT1         8.5060     0.0530    -1.3450 hc         1 KKT       0.033033
     46 HAT2         8.0300     0.6640     0.2540 hc         1 KKT       0.033033
     47 HAT3         7.8060    -1.0560    -0.1460 hc         1 KKT       0.033033
@<TRIPOS>BOND
     1     1     2 ar  
     2     1     6 ar  
     3     1    26 1   
     4     2     3 ar  
     5     2    27 1   
     6     3     4 ar  
     7     3    28 1   
     8     4     5 ar  
     9     4    29 1   
    10     5     6 ar  
    11     5    30 1   
    12     6     7 1   
    13     7     8 1   
    14     7    31 1   
    15     7    32 1   
    16     8     9 1   
    17     8    11 1   
    18     9    10 1   
    19     9    16 2   
    20    10    33 1   
    21    10    34 1   
    22    11    12 2   
    23    11    13 1   
    24    13    14 1   
    25    13    35 1   
    26    14    15 2   
    27    14    16 1   
    28    16    17 1   
    29    17    18 1   
    30    17    19 1   
    31    18    36 1   
    32    18    37 1   
    33    18    38 1   
    34    19    20 2   
    35    19    21 2   
    36    19    22 1   
    37    22    23 1   
    38    22    39 1   
    39    22    40 1   
    40    23    24 1   
    41    23    41 1   
    42    23    42 1   
    43    24    25 1   
    44    24    43 1   
    45    24    44 1   
    46    25    45 1   
    47    25    46 1   
    48    25    47 1   
@<TRIPOS>SUBSTRUCTURE
     1 KKT         1 TEMP              0 ****  ****    0 ROOT
