@<TRIPOS>MOLECULE
KKU
   30    30     1     0     0
SMALL
bcc


@<TRIPOS>ATOM
      1 C02        -14.6170     0.4260   -39.7090 ca         1 KKU       0.665200
      2 C03        -15.0380    -0.4320   -40.7400 ca         1 KKU      -0.315300
      3 C04        -14.2780    -1.5440   -41.0380 ca         1 KKU       0.000700
      4 C05        -13.1160    -1.7670   -40.2900 ca         1 KKU      -0.297300
      5 C06        -12.7750    -0.8720   -39.2920 ca         1 KKU       0.464600
      6 C07        -14.6780    -2.4950   -42.1240 c3         1 KKU      -0.053800
      7 C08        -11.5260    -1.0570   -38.4770 c3         1 KKU      -0.127700
      8 C09        -10.4830     0.0270   -38.7570 c3         1 KKU      -0.072400
      9 C10         -9.2480    -0.0680   -37.8730 c3         1 KKU       0.156800
     10 C12         -7.2650    -1.3200   -37.3250 c3         1 KKU       0.143100
     11 N01        -13.5120     0.2050   -39.0080 nb         1 KKU      -0.754000
     12 N02        -15.3700     1.5110   -39.3560 nv         1 KKU      -0.945500
     13 N11         -8.4660    -1.2620   -38.1330 n7         1 KKU      -0.804200
     14 H1         -15.9470    -0.2170   -41.2890 ha         1 KKU       0.136000
     15 H2         -12.4870    -2.6270   -40.4890 ha         1 KKU       0.140000
     16 H3         -13.8890    -2.5870   -42.8720 hc         1 KKU       0.046033
     17 H4         -14.8510    -3.4940   -41.7210 hc         1 KKU       0.046033
     18 H5         -15.5870    -2.1720   -42.6290 hc         1 KKU       0.046033
     19 H6         -11.7850    -1.0350   -37.4140 hc         1 KKU       0.050700
     20 H7         -11.1150    -2.0480   -38.6840 hc         1 KKU       0.050700
     21 H8         -10.1810    -0.0160   -39.8070 hc         1 KKU       0.055200
     22 H9         -10.9420     1.0050   -38.6000 hc         1 KKU       0.055200
     23 H10         -8.6080     0.7970   -38.0730 h1         1 KKU       0.028700
     24 H11         -9.5510     0.0170   -36.8160 h1         1 KKU       0.028700
     25 H12         -6.7430    -2.2600   -37.5020 h1         1 KKU       0.028033
     26 H13         -6.5880    -0.5100   -37.6060 h1         1 KKU       0.028033
     27 H14         -7.4440    -1.2340   -36.2430 h1         1 KKU       0.028033
     28 H15        -14.8980     2.2200   -38.8190 hn         1 KKU       0.411800
     29 H16        -16.0120     1.8750   -40.0400 hn         1 KKU       0.411800
     30 H17         -9.0250    -2.0810   -37.9300 hn         1 KKU       0.347800
@<TRIPOS>BOND
     1     1     2 ar  
     2     1    11 ar  
     3     1    12 1   
     4     2     3 ar  
     5     2    14 1   
     6     3     4 ar  
     7     3     6 1   
     8     4     5 ar  
     9     4    15 1   
    10     5     7 1   
    11     5    11 ar  
    12     6    16 1   
    13     6    17 1   
    14     6    18 1   
    15     7     8 1   
    16     7    19 1   
    17     7    20 1   
    18     8     9 1   
    19     8    21 1   
    20     8    22 1   
    21     9    13 1   
    22     9    23 1   
    23     9    24 1   
    24    10    13 1   
    25    10    25 1   
    26    10    26 1   
    27    10    27 1   
    28    12    28 1   
    29    12    29 1   
    30    13    30 1   
@<TRIPOS>SUBSTRUCTURE
     1 KKU         1 TEMP              0 ****  ****    0 ROOT
