@<TRIPOS>MOLECULE
KKU
   30    30     1     0     0
SMALL
No Charge or Current Charge


@<TRIPOS>ATOM
      1 C02        -14.8700     0.2660   -39.5450 ca         1 KKU       0.599900
      2 C03        -15.1420    -0.5110   -40.6730 ca         1 KKU      -0.232000
      3 C04        -14.1880    -1.4560   -41.0780 ca         1 KKU       0.000700
      4 C05        -13.0150    -1.5550   -40.3120 ca         1 KKU      -0.214000
      5 C06        -12.8440    -0.7180   -39.1930 ca         1 KKU       0.399300
      6 C07        -14.4150    -2.3400   -42.2920 c3         1 KKU      -0.053800
      7 C08        -11.5780    -0.7970   -38.3510 c3         1 KKU      -0.127700
      8 C09        -10.3850    -0.0560   -39.0080 c3         1 KKU      -0.072400
      9 C10         -9.0940    -0.0480   -38.1590 c3         1 KKU       0.156800
     10 C12         -7.3040    -1.5040   -37.2260 c3         1 KKU       0.143100
     11 N01        -13.7690     0.1920   -38.8140 nb         1 KKU      -0.754000
     12 N02        -15.6990     1.2000   -39.0750 nv         1 KKU      -1.055900
     13 N11         -8.5470    -1.4100   -38.0150 n7         1 KKU      -0.859400
     14 H1         -16.0720    -0.3860   -41.2180 ha         1 KKU       0.118000
     15 H2         -12.2410    -2.2700   -40.5770 ha         1 KKU       0.122000
     16 H3         -13.4700    -2.5800   -42.7930 hc         1 KKU       0.046033
     17 H4         -14.8910    -3.2850   -42.0030 hc         1 KKU       0.046033
     18 H5         -15.0630    -1.8490   -43.0280 hc         1 KKU       0.046033
     19 H6         -11.7560    -0.3770   -37.3530 hc         1 KKU       0.050700
     20 H7         -11.3150    -1.8500   -38.1960 hc         1 KKU       0.050700
     21 H8         -10.1710    -0.4990   -39.9880 hc         1 KKU       0.055200
     22 H9         -10.6790     0.9840   -39.1930 hc         1 KKU       0.055200
     23 H10         -8.3580     0.6030   -38.6500 h1         1 KKU       0.028700
     24 H11         -9.3150     0.3870   -37.1740 h1         1 KKU       0.028700
     25 H12         -6.9590    -2.5460   -37.1720 h1         1 KKU       0.028033
     26 H13         -6.5040    -0.9050   -37.6830 h1         1 KKU       0.028033
     27 H14         -7.4620    -1.1430   -36.2010 h1         1 KKU       0.028033
     28 H15        -15.2810     1.8390   -38.4110 hn         1 KKU       0.467000
     29 H16        -16.3800     1.5900   -39.7160 hn         1 KKU       0.467000
     30 H17         -9.2600    -1.9900   -37.5560 hn         1 KKU       0.403000
@<TRIPOS>BOND
     1     1     2 ar  
     2     1    11 ar  
     3     1    12 1   
     4     2     3 ar  
     5     2    14 1   
     6     3     4 ar  
     7     3     6 1   
     8     4     5 ar  
     9     4    15 1   
    10     5     7 1   
    11     5    11 ar  
    12     6    16 1   
    13     6    17 1   
    14     6    18 1   
    15     7     8 1   
    16     7    19 1   
    17     7    20 1   
    18     8     9 1   
    19     8    21 1   
    20     8    22 1   
    21     9    13 1   
    22     9    23 1   
    23     9    24 1   
    24    10    13 1   
    25    10    25 1   
    26    10    26 1   
    27    10    27 1   
    28    12    28 1   
    29    12    29 1   
    30    13    30 1   
@<TRIPOS>SUBSTRUCTURE
     1 KKU         1 TEMP              0 ****  ****    0 ROOT
