@<TRIPOS>MOLECULE
KKV
   35    37     1     0     0
SMALL
No Charge or Current Charge


@<TRIPOS>ATOM
      1 O01          5.2650    -0.3060    -0.0180 o          1 KKV      -0.617000
      2 C02          4.0580    -0.5040    -0.0440 c          1 KKV       0.508200
      3 C03          3.4300    -1.8480    -0.1800 cc         1 KKV      -0.014100
      4 O04          4.3080    -2.8800    -0.2590 oh         1 KKV      -0.528100
      5 C05          2.0610    -2.0330    -0.2050 cd         1 KKV      -0.148000
      6 C06          1.1600    -0.8960    -0.1190 cd         1 KKV      -0.018200
      7 C07         -0.3060    -1.1430    -0.0390 ca         1 KKV      -0.105800
      8 C08         -0.8770    -2.2160    -0.7580 ca         1 KKV      -0.123000
      9 C09         -2.2560    -2.4810    -0.6970 ca         1 KKV      -0.095000
     10 C10         -3.1130    -1.6890     0.0990 ca         1 KKV      -0.137600
     11 C11         -4.6050    -1.9760     0.1680 c          1 KKV       0.725600
     12 O12         -5.0530    -2.9070    -0.4880 o          1 KKV      -0.709000
     13 O13         -5.3060    -1.2650     0.8750 o          1 KKV      -0.709000
     14 C14         -2.5410    -0.6290     0.8370 ca         1 KKV      -0.095000
     15 C15         -1.1620    -0.3650     0.7710 ca         1 KKV      -0.123000
     16 C16          1.7760     0.3550     0.0240 cc         1 KKV       0.057400
     17 C17          0.9920     1.5900    -0.0040 ca         1 KKV      -0.071800
     18 C18          1.1300     2.5400     1.0300 ca         1 KKV      -0.060000
     19 C19          0.3870     3.7340     1.0000 ca         1 KKV      -0.156000
     20 C20         -0.4880     3.9860    -0.0670 ca         1 KKV       0.177000
     21 F21         -1.2010     5.1330    -0.0940 f          1 KKV      -0.181000
     22 C22         -0.6240     3.0540    -1.1070 ca         1 KKV      -0.156000
     23 C23          0.1180     1.8600    -1.0780 ca         1 KKV      -0.060000
     24 N24          3.1510     0.5110     0.0520 ns         1 KKV      -0.343100
     25 H041         5.2090    -2.4790    -0.2130 ho         1 KKV       0.480000
     26 H051         1.6710    -3.0440    -0.2650 ha         1 KKV       0.211000
     27 H081        -0.2600    -2.8370    -1.4020 ha         1 KKV       0.091000
     28 H091        -2.6580    -3.3090    -1.2790 ha         1 KKV       0.132500
     29 H141        -3.1650    -0.0060     1.4750 ha         1 KKV       0.132500
     30 H151        -0.7660     0.4330     1.3920 ha         1 KKV       0.091000
     31 H181         1.8040     2.3460     1.8630 ha         1 KKV       0.130000
     32 H191         0.4890     4.4620     1.8010 ha         1 KKV       0.132500
     33 H221        -1.3010     3.2580    -1.9320 ha         1 KKV       0.132500
     34 H231         0.0120     1.1410    -1.8880 ha         1 KKV       0.130000
     35 H241         3.5440     1.4400     0.1230 hn         1 KKV       0.322500
@<TRIPOS>BOND
     1     1     2 2   
     2     2     3 1   
     3     2    24 1   
     4     3     4 1   
     5     3     5 2   
     6     4    25 1   
     7     5     6 1   
     8     5    26 1   
     9     6     7 1   
    10     6    16 2   
    11     7     8 ar  
    12     7    15 ar  
    13     8     9 ar  
    14     8    27 1   
    15     9    10 ar  
    16     9    28 1   
    17    10    11 1   
    18    10    14 ar  
    19    11    12 1   
    20    11    13 1   
    21    14    15 ar  
    22    14    29 1   
    23    15    30 1   
    24    16    17 1   
    25    16    24 1   
    26    17    18 ar  
    27    17    23 ar  
    28    18    19 ar  
    29    18    31 1   
    30    19    20 ar  
    31    19    32 1   
    32    20    21 1   
    33    20    22 ar  
    34    22    23 ar  
    35    22    33 1   
    36    23    34 1   
    37    24    35 1   
@<TRIPOS>SUBSTRUCTURE
     1 KKV         1 TEMP              0 ****  ****    0 ROOT
