@<TRIPOS>MOLECULE
KKV
   35    37     1     0     0
SMALL
bcc


@<TRIPOS>ATOM
      1 O01          5.2010    -0.3300     0.0730 o          1 KKV      -0.692500
      2 C02          3.9810    -0.5260     0.0420 c          1 KKV       0.650700
      3 C03          3.4020    -1.8450    -0.0060 cc         1 KKV      -0.014100
      4 O04          4.2550    -2.8850    -0.0110 oh         1 KKV      -0.489100
      5 C05          2.0580    -2.0100    -0.0460 cd         1 KKV      -0.098000
      6 C06          1.1590    -0.9070    -0.0220 cd         1 KKV      -0.018200
      7 C07         -0.2920    -1.1730     0.0050 ca         1 KKV      -0.105800
      8 C08         -0.8690    -1.9960    -0.9630 ca         1 KKV      -0.141000
      9 C09         -2.2310    -2.2520    -0.9460 ca         1 KKV      -0.113000
     10 C10         -3.0510    -1.7050     0.0350 ca         1 KKV      -0.137600
     11 C11         -4.5690    -1.9910     0.0430 c          1 KKV       0.936200
     12 O12         -4.9600    -2.7370    -0.8640 o          1 KKV      -0.814300
     13 O13         -5.1960    -1.4360     0.9560 o          1 KKV      -0.814300
     14 C14         -2.4670    -0.8970     1.0070 ca         1 KKV      -0.113000
     15 C15         -1.1080    -0.6320     0.9970 ca         1 KKV      -0.141000
     16 C16          1.6960     0.3500    -0.0030 cc         1 KKV       0.057400
     17 C17          0.9420     1.6130    -0.0330 ca         1 KKV      -0.071800
     18 C18          1.2990     2.6750     0.7950 ca         1 KKV      -0.078000
     19 C19          0.6160     3.8810     0.7490 ca         1 KKV      -0.174000
     20 C20         -0.4340     4.0110    -0.1380 ca         1 KKV       0.141900
     21 F21         -1.0980     5.1700    -0.1920 f          1 KKV      -0.145900
     22 C22         -0.8200     2.9760    -0.9690 ca         1 KKV      -0.174000
     23 C23         -0.1280     1.7810    -0.9140 ca         1 KKV      -0.078000
     24 N24          3.0660     0.4790     0.0310 ns         1 KKV      -0.410100
     25 H041         5.1520    -2.5260     0.0240 ho         1 KKV       0.441000
     26 H051         1.6420    -3.0120    -0.0830 ha         1 KKV       0.161000
     27 H081        -0.2480    -2.4190    -1.7460 ha         1 KKV       0.109000
     28 H091        -2.6900    -2.8790    -1.7000 ha         1 KKV       0.150500
     29 H141        -3.1050    -0.4810     1.7760 ha         1 KKV       0.150500
     30 H151        -0.6710    -0.0080     1.7680 ha         1 KKV       0.109000
     31 H181         2.0980     2.5620     1.5180 ha         1 KKV       0.148000
     32 H191         0.8860     4.7000     1.4010 ha         1 KKV       0.150500
     33 H221        -1.6550     3.0960    -1.6450 ha         1 KKV       0.150500
     34 H231        -0.4300     0.9670    -1.5590 ha         1 KKV       0.148000
     35 H241         3.4470     1.4150    -0.0060 hn         1 KKV       0.322500
@<TRIPOS>BOND
     1     1     2 2   
     2     2     3 1   
     3     2    24 1   
     4     3     4 1   
     5     3     5 2   
     6     4    25 1   
     7     5     6 1   
     8     5    26 1   
     9     6     7 1   
    10     6    16 2   
    11     7     8 ar  
    12     7    15 ar  
    13     8     9 ar  
    14     8    27 1   
    15     9    10 ar  
    16     9    28 1   
    17    10    11 1   
    18    10    14 ar  
    19    11    12 1   
    20    11    13 1   
    21    14    15 ar  
    22    14    29 1   
    23    15    30 1   
    24    16    17 1   
    25    16    24 1   
    26    17    18 ar  
    27    17    23 ar  
    28    18    19 ar  
    29    18    31 1   
    30    19    20 ar  
    31    19    32 1   
    32    20    21 1   
    33    20    22 ar  
    34    22    23 ar  
    35    22    33 1   
    36    23    34 1   
    37    24    35 1   
@<TRIPOS>SUBSTRUCTURE
     1 KKV         1 TEMP              0 ****  ****    0 ROOT
