@<TRIPOS>MOLECULE
KKW
   52    56     1     0     0
SMALL
abcg2


@<TRIPOS>ATOM
      1 C10         -5.4800   -55.1570    37.9930 ca         1 KKW      -0.152000
      2 C11         -4.5910   -54.9710    36.9250 ca         1 KKW      -0.025800
      3 C12         -1.9220   -46.6890    35.0100 c5         1 KKW      -0.099400
      4 C13         -4.3330   -53.6640    36.5010 ca         1 KKW      -0.243000
      5 C14         -3.9180   -55.9390    36.1120 cc         1 KKW      -0.183200
      6 C15         -3.2150   -55.3640    35.1100 cd         1 KKW      -0.154400
      7 C16         -2.3820   -46.7930    36.4930 c5         1 KKW       0.080500
      8 C19         -1.2500   -44.6670    33.5580 ca         1 KKW      -0.052300
      9 C21         -1.4040   -44.7840    31.1580 ca         1 KKW       0.124000
     10 C22         -1.1740   -43.4250    31.0350 ca         1 KKW      -0.104000
     11 C01         -1.2660   -45.3100    34.9190 c5         1 KKW      -0.059400
     12 C02         -0.9750   -42.6870    32.1940 ca         1 KKW      -0.098000
     13 C03         -1.0100   -43.2970    33.4380 ca         1 KKW      -0.108000
     14 C04         -5.4630   -49.0360    36.2140 c6         1 KKW       0.095000
     15 C05         -5.6490   -50.2540    37.1050 c6         1 KKW       0.177800
     16 C06         -3.3240   -50.7850    36.8480 c6         1 KKW       0.177800
     17 C07         -3.1200   -49.5650    35.9690 c6         1 KKW       0.095000
     18 C08         -4.9420   -52.5730    37.1500 ca         1 KKW       0.611900
     19 C09         -6.0600   -54.0340    38.5310 ca         1 KKW       0.358900
     20 C17         -2.0390   -44.5350    35.9980 c5         1 KKW       0.147800
     21 C20         -1.4440   -45.4090    32.3950 ca         1 KKW      -0.103000
     22 N23         -2.2170   -45.4740    37.0910 n7         1 KKW      -0.812400
     23 N24         -4.0990   -48.5440    36.2860 n          1 KKW      -0.424800
     24 N25         -4.6920   -51.2760    36.7210 nh         1 KKW      -0.754300
     25 N26         -5.7950   -52.7810    38.1320 nb         1 KKW      -0.724000
     26 O27         -4.7370   -46.4350    36.7570 o          1 KKW      -0.568100
     27 S28         -3.3160   -53.6420    35.1010 ss         1 KKW       0.096400
     28 CL29        -1.6520   -45.7350    29.7270 cl         1 KKW      -0.206000
     29 H1          -5.7240   -56.1440    38.3620 ha         1 KKW       0.128000
     30 H3          -1.2470   -47.4990    34.7340 hc         1 KKW       0.058200
     31 H4          -3.9800   -57.0060    36.2690 ha         1 KKW       0.208000
     32 H5          -2.6280   -55.8630    34.3530 h4         1 KKW       0.218000
     33 H6          -1.7610   -47.5020    37.0430 h1         1 KKW       0.057700
     34 H7          -1.1480   -42.9500    30.0640 ha         1 KKW       0.131000
     35 H8          -0.2270   -45.3980    35.2600 hc         1 KKW       0.055700
     36 H9          -0.7920   -41.6230    32.1200 ha         1 KKW       0.119000
     37 H10         -0.8470   -42.6970    34.3240 ha         1 KKW       0.116000
     38 H11         -6.1500   -48.2510    36.5170 h1         1 KKW       0.059450
     39 H12         -5.6940   -49.3060    35.1780 h1         1 KKW       0.059450
     40 H13         -5.5380   -49.9620    38.1570 h1         1 KKW       0.055700
     41 H14         -6.6610   -50.6360    36.9740 h1         1 KKW       0.055700
     42 H15         -2.6060   -51.5500    36.5550 h1         1 KKW       0.055700
     43 H16         -3.1080   -50.5210    37.8930 h1         1 KKW       0.055700
     44 H17         -3.2180   -49.8540    34.9170 h1         1 KKW       0.059450
     45 H18         -2.1060   -49.2040    36.1130 h1         1 KKW       0.059450
     46 H19         -6.7790   -54.1270    39.3370 h4         1 KKW       0.020100
     47 H20         -1.5240   -43.6410    36.3470 h1         1 KKW       0.067200
     48 H21         -3.0110   -44.2250    35.6030 h1         1 KKW       0.067200
     49 H22         -1.6210   -46.4750    32.4450 ha         1 KKW       0.126000
     50 H23         -1.3760   -45.4820    37.6530 hn         1 KKW       0.405000
     51 C18         -3.8440   -47.2380    36.5410 c          1 KKW       0.614100
     52 H2          -2.7810   -46.7430    34.3360 hc         1 KKW       0.058200
@<TRIPOS>BOND
     1     1     2 ar  
     2     1    19 ar  
     3     1    29 1   
     4     2     4 ar  
     5     2     5 1   
     6     3     7 1   
     7     3    11 1   
     8     3    30 1   
     9     3    52 1   
    10     4    18 ar  
    11     4    27 1   
    12     5     6 2   
    13     5    31 1   
    14     6    27 1   
    15     6    32 1   
    16     7    22 1   
    17     7    33 1   
    18     7    51 1   
    19     8    11 1   
    20     8    13 ar  
    21     8    21 ar  
    22     9    10 ar  
    23     9    21 ar  
    24     9    28 1   
    25    10    12 ar  
    26    10    34 1   
    27    11    20 1   
    28    11    35 1   
    29    12    13 ar  
    30    12    36 1   
    31    13    37 1   
    32    14    15 1   
    33    14    23 1   
    34    14    38 1   
    35    14    39 1   
    36    15    24 1   
    37    15    40 1   
    38    15    41 1   
    39    16    17 1   
    40    16    24 1   
    41    16    42 1   
    42    16    43 1   
    43    17    23 1   
    44    17    44 1   
    45    17    45 1   
    46    18    24 1   
    47    18    25 ar  
    48    19    25 ar  
    49    19    46 1   
    50    20    22 1   
    51    20    47 1   
    52    20    48 1   
    53    21    49 1   
    54    22    50 1   
    55    23    51 1   
    56    26    51 2   
@<TRIPOS>SUBSTRUCTURE
     1 KKW         1 TEMP              0 ****  ****    0 ROOT
