@<TRIPOS>MOLECULE
KKW
   52    56     1     0     0
SMALL
No Charge or Current Charge


@<TRIPOS>ATOM
      1 C10         -5.6290   -55.0730    38.0500 ca         1 KKW      -0.152000
      2 C11         -4.8110   -54.9580    36.9220 ca         1 KKW      -0.025800
      3 C12         -1.7210   -46.6370    35.1050 c5         1 KKW      -0.099400
      4 C13         -4.4750   -53.7040    36.4640 ca         1 KKW      -0.243000
      5 C14         -4.2580   -56.0280    36.1310 cc         1 KKW      -0.183200
      6 C15         -3.5150   -55.5370    35.0690 cd         1 KKW      -0.154400
      7 C16         -2.1320   -46.8010    36.6160 c5         1 KKW       0.080500
      8 C19         -1.2620   -44.6200    33.6570 ca         1 KKW      -0.052300
      9 C21         -1.1100   -44.8520    31.2190 ca         1 KKW       0.124000
     10 C22         -1.5930   -43.5470    31.0480 ca         1 KKW      -0.104000
     11 C01         -1.0440   -45.2330    35.0570 c5         1 KKW      -0.059400
     12 C02         -1.8960   -42.7670    32.1740 ca         1 KKW      -0.098000
     13 C03         -1.7270   -43.2950    33.4660 ca         1 KKW      -0.108000
     14 C04         -5.3220   -48.9790    35.8780 c6         1 KKW       0.095000
     15 C05         -5.6410   -50.1560    36.8400 c6         1 KKW       0.177800
     16 C06         -3.2310   -50.7860    36.8240 c6         1 KKW       0.177800
     17 C07         -2.9390   -49.5990    35.8630 c6         1 KKW       0.095000
     18 C08         -4.9530   -52.5600    37.1280 ca         1 KKW       0.611900
     19 C09         -6.0760   -53.8860    38.6610 ca         1 KKW       0.358900
     20 C17         -1.8800   -44.5020    36.1370 c5         1 KKW       0.147800
     21 C20         -0.9400   -45.3800    32.5090 ca         1 KKW      -0.103000
     22 N23         -1.8170   -45.4700    37.2510 n7         1 KKW      -0.812400
     23 N24         -3.9250   -48.4880    36.0440 n          1 KKW      -0.424800
     24 N25         -4.6400   -51.2580    36.7070 nh         1 KKW      -0.754300
     25 N26         -5.7500   -52.6480    38.2130 nb         1 KKW      -0.724000
     26 O27         -4.5570   -46.6060    37.2240 o          1 KKW      -0.568100
     27 S28         -3.4700   -53.7500    34.9980 ss         1 KKW       0.096400
     28 Cl29        -0.7100   -45.8300    29.8130 cl         1 KKW      -0.206000
     29 H1          -5.9190   -56.0420    38.4450 ha         1 KKW       0.128000
     30 H3          -1.0440   -47.4310    34.7710 hc         1 KKW       0.058200
     31 H4          -4.3980   -57.0880    36.3300 ha         1 KKW       0.208000
     32 H5          -2.9870   -56.1090    34.3120 h4         1 KKW       0.218000
     33 H6          -1.5300   -47.5720    37.1150 h1         1 KKW       0.057700
     34 H7          -1.7220   -43.1410    30.0480 ha         1 KKW       0.131000
     35 H8           0.0170   -45.2790    35.3280 hc         1 KKW       0.055700
     36 H9          -2.2600   -41.7490    32.0460 ha         1 KKW       0.119000
     37 H10         -1.9580   -42.6530    34.3120 ha         1 KKW       0.116000
     38 H11         -6.0470   -48.1690    36.0380 h1         1 KKW       0.059450
     39 H12         -5.4540   -49.3220    34.8420 h1         1 KKW       0.059450
     40 H13         -5.6520   -49.7790    37.8740 h1         1 KKW       0.055700
     41 H14         -6.6510   -50.5270    36.6130 h1         1 KKW       0.055700
     42 H15         -2.5250   -51.5990    36.6030 h1         1 KKW       0.055700
     43 H16         -3.0340   -50.4610    37.8560 h1         1 KKW       0.055700
     44 H17         -3.0080   -49.9610    34.8270 h1         1 KKW       0.059450
     45 H18         -1.9030   -49.2750    36.0100 h1         1 KKW       0.059450
     46 H19         -6.7180   -53.9280    39.5400 h4         1 KKW       0.020100
     47 H20         -1.4500   -43.5290    36.4160 h1         1 KKW       0.067200
     48 H21         -2.9200   -44.3430    35.8120 h1         1 KKW       0.067200
     49 H22         -0.5510   -46.3890    32.6130 ha         1 KKW       0.126000
     50 H23         -0.8450   -45.4920    37.5870 hn         1 KKW       0.405000
     51 C18         -3.6540   -47.2590    36.7090 c          1 KKW       0.614100
     52 H2          -2.6020   -46.6730    34.4510 hc         1 KKW       0.058200
@<TRIPOS>BOND
     1     1     2 ar  
     2     1    19 ar  
     3     1    29 1   
     4     2     4 ar  
     5     2     5 1   
     6     3     7 1   
     7     3    11 1   
     8     3    30 1   
     9     3    52 1   
    10     4    18 ar  
    11     4    27 1   
    12     5     6 2   
    13     5    31 1   
    14     6    27 1   
    15     6    32 1   
    16     7    22 1   
    17     7    33 1   
    18     7    51 1   
    19     8    11 1   
    20     8    13 ar  
    21     8    21 ar  
    22     9    10 ar  
    23     9    21 ar  
    24     9    28 1   
    25    10    12 ar  
    26    10    34 1   
    27    11    20 1   
    28    11    35 1   
    29    12    13 ar  
    30    12    36 1   
    31    13    37 1   
    32    14    15 1   
    33    14    23 1   
    34    14    38 1   
    35    14    39 1   
    36    15    24 1   
    37    15    40 1   
    38    15    41 1   
    39    16    17 1   
    40    16    24 1   
    41    16    42 1   
    42    16    43 1   
    43    17    23 1   
    44    17    44 1   
    45    17    45 1   
    46    18    24 1   
    47    18    25 ar  
    48    19    25 ar  
    49    19    46 1   
    50    20    22 1   
    51    20    47 1   
    52    20    48 1   
    53    21    49 1   
    54    22    50 1   
    55    23    51 1   
    56    26    51 2   
@<TRIPOS>SUBSTRUCTURE
     1 KKW         1 TEMP              0 ****  ****    0 ROOT
