@<TRIPOS>MOLECULE
KKY
   53    55     1     0     0
SMALL
No Charge or Current Charge


@<TRIPOS>ATOM
      1 C13         -0.9440    -2.9410    -0.5630 ca         1 KKY       0.170000
      2 C15         -1.7290    -0.7830     0.2420 ca         1 KKY      -0.048300
      3 C17         -2.8430     0.0960     0.7940 c3         1 KKY      -0.031100
      4 C22         -4.7890     1.7110     0.1800 c5         1 KKY       0.170500
      5 C02          6.4450    -0.2730    -0.1900 ca         1 KKY       0.600900
      6 C03          6.7460     1.0900    -0.1340 ca         1 KKY      -0.232000
      7 C04          5.7090     1.9900     0.1540 ca         1 KKY       0.001700
      8 C05          4.4300     1.4520     0.3670 ca         1 KKY      -0.216000
      9 C06          4.2410     0.0580     0.2910 ca         1 KKY       0.397300
     10 C09          1.9710    -0.4610    -0.7440 c3         1 KKY      -0.030100
     11 C11          0.5880    -1.0500    -0.5050 ca         1 KKY      -0.051300
     12 C14         -1.9730    -2.1370    -0.0510 ca         1 KKY      -0.151000
     13 C23         -5.6670     2.2940    -0.9670 c5         1 KKY      -0.095400
     14 C25         -6.6360     0.2780     0.0790 c5         1 KKY       0.159800
     15 C12          0.3330    -2.4050    -0.7900 ca         1 KKY      -0.152000
     16 C16         -0.4470    -0.2460     0.0120 ca         1 KKY      -0.128000
     17 C18         -3.6690     0.7590    -0.3300 c3         1 KKY      -0.060400
     18 C24         -6.8240     1.2530    -1.1220 c5         1 KKY      -0.111400
     19 F13         -1.1830    -4.2410    -0.8410 f          1 KKY      -0.183000
     20 N01          5.2470    -0.8000     0.0140 nb         1 KKY      -0.754000
     21 N02          7.3500    -1.2190    -0.4460 nv         1 KKY      -1.055900
     22 N21         -5.8210     1.0660     1.0380 n3         1 KKY      -0.722600
     23 H1          -3.5100    -0.5000     1.4290 hc         1 KKY       0.053200
     24 H2          -2.4240     0.8770     1.4410 hc         1 KKY       0.053200
     25 H3          -4.2850     2.5240     0.7220 h1         1 KKY       0.038700
     26 H4           7.7580     1.4390    -0.3130 ha         1 KKY       0.119000
     27 H5           3.5880     2.1020     0.5890 ha         1 KKY       0.121000
     28 H6           5.7850     3.9570    -0.7520 hc         1 KKY       0.046700
     29 H7           5.2930     3.9680     0.9510 hc         1 KKY       0.046700
     30 H8           6.9890     3.7070     0.5240 hc         1 KKY       0.046700
     31 H11          1.8840     0.5890    -1.0520 hc         1 KKY       0.058700
     32 H12          2.4660    -0.9810    -1.5740 hc         1 KKY       0.058700
     33 H13         -2.9570    -2.5680     0.1160 ha         1 KKY       0.133000
     34 H14         -6.0620     3.2800    -0.6950 hc         1 KKY       0.049700
     35 H15         -5.1030     2.4320    -1.8960 hc         1 KKY       0.049700
     36 H16         -7.5960    -0.0450     0.5050 h1         1 KKY       0.051200
     37 H17         -6.1040    -0.6310    -0.2370 h1         1 KKY       0.051200
     38 H18          1.1200    -3.0420    -1.1840 ha         1 KKY       0.133000
     39 H19         -0.2540     0.8010     0.2350 ha         1 KKY       0.113000
     40 H20         -2.9820     1.3340    -0.9630 hc         1 KKY       0.046200
     41 H21         -4.0810    -0.0250    -0.9760 hc         1 KKY       0.046200
     42 H22         -7.8020     1.7470    -1.0840 hc         1 KKY       0.047700
     43 H23         -6.7730     0.7180    -2.0760 hc         1 KKY       0.047700
     44 H27          7.0510    -2.1600    -0.2220 hn         1 KKY       0.468500
     45 H28          8.3240    -0.9980    -0.2710 hn         1 KKY       0.468500
     46 C26         -6.6010     1.9900     1.8990 c3         1 KKY       0.156100
     47 C08          2.8650    -0.5500     0.5120 c3         1 KKY      -0.123700
     48 C07          5.9580     3.4870     0.2240 c3         1 KKY      -0.053800
     49 H9           2.9540    -1.6010     0.8130 hc         1 KKY       0.055700
     50 H10          2.3660    -0.0360     1.3420 hc         1 KKY       0.055700
     51 H24         -7.1780     2.7120     1.3070 h1         1 KKY       0.028033
     52 H25         -7.3050     1.4260     2.5250 h1         1 KKY       0.028033
     53 H26         -5.9320     2.5500     2.5650 h1         1 KKY       0.028033
@<TRIPOS>BOND
     1     1    12 ar  
     2     1    15 ar  
     3     1    19 1   
     4     2     3 1   
     5     2    12 ar  
     6     2    16 ar  
     7     3    17 1   
     8     3    23 1   
     9     3    24 1   
    10     4    13 1   
    11     4    17 1   
    12     4    22 1   
    13     4    25 1   
    14     5     6 ar  
    15     5    20 ar  
    16     5    21 1   
    17     6     7 ar  
    18     6    26 1   
    19     7     8 ar  
    20     7    48 1   
    21     8     9 ar  
    22     8    27 1   
    23     9    20 ar  
    24     9    47 1   
    25    10    11 1   
    26    10    31 1   
    27    10    32 1   
    28    10    47 1   
    29    11    15 ar  
    30    11    16 ar  
    31    12    33 1   
    32    13    18 1   
    33    13    34 1   
    34    13    35 1   
    35    14    18 1   
    36    14    22 1   
    37    14    36 1   
    38    14    37 1   
    39    15    38 1   
    40    16    39 1   
    41    17    40 1   
    42    17    41 1   
    43    18    42 1   
    44    18    43 1   
    45    21    44 1   
    46    21    45 1   
    47    22    46 1   
    48    28    48 1   
    49    29    48 1   
    50    30    48 1   
    51    46    51 1   
    52    46    52 1   
    53    46    53 1   
    54    47    49 1   
    55    47    50 1   
@<TRIPOS>SUBSTRUCTURE
     1 KKY         1 TEMP              0 ****  ****    0 ROOT
