@<TRIPOS>MOLECULE
KKY
   53    55     1     0     0
SMALL
bcc


@<TRIPOS>ATOM
      1 C13         -0.7980    -2.9670     0.2420 ca         1 KKY       0.134900
      2 C15         -1.7530    -0.7960     0.5220 ca         1 KKY      -0.048300
      3 C17         -2.9290     0.0930     0.8090 c3         1 KKY      -0.031100
      4 C22         -4.8230     1.4460    -0.2360 c5         1 KKY       0.170500
      5 C02          6.1070    -0.0710    -0.7920 ca         1 KKY       0.666200
      6 C03          6.5890     1.1900    -0.3960 ca         1 KKY      -0.315300
      7 C04          5.7960     1.9920     0.3980 ca         1 KKY       0.001700
      8 C05          4.5360     1.5080     0.7730 ca         1 KKY      -0.299300
      9 C06          4.1430     0.2540     0.3420 ca         1 KKY       0.462600
     10 C09          1.8890    -0.4440    -0.5300 c3         1 KKY      -0.030100
     11 C11          0.5620    -1.0520    -0.1750 ca         1 KKY      -0.051300
     12 C14         -1.8870    -2.1810     0.5670 ca         1 KKY      -0.169000
     13 C23         -5.4620     1.9220    -1.5570 c5         1 KKY      -0.095400
     14 C25         -7.0610     0.6920    -0.3450 c5         1 KKY       0.159800
     15 C12          0.4210    -2.4380    -0.1280 ca         1 KKY      -0.170000
     16 C16         -0.5250    -0.2500     0.1530 ca         1 KKY      -0.146000
     17 C18         -3.6200     0.5430    -0.4770 c3         1 KKY      -0.060400
     18 C24         -6.9590     1.8980    -1.2740 c5         1 KKY      -0.111400
     19 F13         -0.9340    -4.3050     0.2880 f          1 KKY      -0.147900
     20 N01          4.9130    -0.5220    -0.4240 nb         1 KKY      -0.754000
     21 N02          6.8470    -0.8700    -1.6160 nv         1 KKY      -0.945500
     22 N21         -5.8860     0.7630     0.5210 n3         1 KKY      -0.722600
     23 H1          -3.6510    -0.4350     1.4370 hc         1 KKY       0.053200
     24 H2          -2.5980     0.9720     1.3710 hc         1 KKY       0.053200
     25 H3          -4.4880     2.3210     0.3360 h1         1 KKY       0.038700
     26 H4           7.5710     1.5190    -0.7140 ha         1 KKY       0.137000
     27 H5           3.8820     2.1010     1.4010 ha         1 KKY       0.139000
     28 H6           5.6440     4.1290     0.3960 hc         1 KKY       0.046700
     29 H7           6.1650     3.4500     1.9270 hc         1 KKY       0.046700
     30 H8           7.2930     3.5300     0.5710 hc         1 KKY       0.046700
     31 H11          1.7390     0.5410    -0.9780 hc         1 KKY       0.058700
     32 H12          2.3970    -1.0610    -1.2740 hc         1 KKY       0.058700
     33 H13         -2.8260    -2.6390     0.8520 ha         1 KKY       0.151000
     34 H14         -5.0900     2.9010    -1.8580 hc         1 KKY       0.049700
     35 H15         -5.2240     1.2200    -2.3620 hc         1 KKY       0.049700
     36 H16         -7.9780     0.6690     0.2460 h1         1 KKY       0.051200
     37 H17         -7.0380    -0.2310    -0.9360 h1         1 KKY       0.051200
     38 H18          1.2480    -3.0910    -0.3780 ha         1 KKY       0.151000
     39 H19         -0.4160     0.8290     0.1160 ha         1 KKY       0.131000
     40 H20         -2.9010     1.0750    -1.1090 hc         1 KKY       0.046200
     41 H21         -3.9450    -0.3350    -1.0450 hc         1 KKY       0.046200
     42 H22         -7.2710     2.8080    -0.7550 hc         1 KKY       0.047700
     43 H23         -7.5700     1.8030    -2.1720 hc         1 KKY       0.047700
     44 H27          6.5880    -1.8420    -1.6420 hn         1 KKY       0.413300
     45 H28          7.8390    -0.7070    -1.6530 hn         1 KKY       0.413300
     46 C26         -6.1580     1.3790     1.8030 c3         1 KKY       0.156100
     47 C08          2.7960    -0.3060     0.7010 c3         1 KKY      -0.123700
     48 C07          6.2560     3.3450     0.8460 c3         1 KKY      -0.053800
     49 H9           2.9250    -1.2900     1.1600 hc         1 KKY       0.055700
     50 H10          2.3120     0.3320     1.4430 hc         1 KKY       0.055700
     51 H24         -6.5060     2.4220     1.7410 h1         1 KKY       0.028033
     52 H25         -6.9170     0.8070     2.3390 h1         1 KKY       0.028033
     53 H26         -5.2570     1.3730     2.4180 h1         1 KKY       0.028033
@<TRIPOS>BOND
     1     1    12 ar  
     2     1    15 ar  
     3     1    19 1   
     4     2     3 1   
     5     2    12 ar  
     6     2    16 ar  
     7     3    17 1   
     8     3    23 1   
     9     3    24 1   
    10     4    13 1   
    11     4    17 1   
    12     4    22 1   
    13     4    25 1   
    14     5     6 ar  
    15     5    20 ar  
    16     5    21 1   
    17     6     7 ar  
    18     6    26 1   
    19     7     8 ar  
    20     7    48 1   
    21     8     9 ar  
    22     8    27 1   
    23     9    20 ar  
    24     9    47 1   
    25    10    11 1   
    26    10    31 1   
    27    10    32 1   
    28    10    47 1   
    29    11    15 ar  
    30    11    16 ar  
    31    12    33 1   
    32    13    18 1   
    33    13    34 1   
    34    13    35 1   
    35    14    18 1   
    36    14    22 1   
    37    14    36 1   
    38    14    37 1   
    39    15    38 1   
    40    16    39 1   
    41    17    40 1   
    42    17    41 1   
    43    18    42 1   
    44    18    43 1   
    45    21    44 1   
    46    21    45 1   
    47    22    46 1   
    48    28    48 1   
    49    29    48 1   
    50    30    48 1   
    51    46    51 1   
    52    46    52 1   
    53    46    53 1   
    54    47    49 1   
    55    47    50 1   
@<TRIPOS>SUBSTRUCTURE
     1 KKY         1 TEMP              0 ****  ****    0 ROOT
