@<TRIPOS>MOLECULE
KKZ
   57    61     1     0     0
SMALL
No Charge or Current Charge


@<TRIPOS>ATOM
      1 N1          -0.7710     0.6420     1.1720 n3         1 KKZ      -0.722600
      2 N3          -3.5170    -2.9220     0.0930 nc         1 KKZ      -0.289600
      3 C4           0.5360     2.7700     0.8840 c6         1 KKZ       0.100000
      4 C5          -1.7990    -0.0920     1.9470 c3         1 KKZ       0.247000
      5 C6          -2.2860    -1.3530     1.2690 cd         1 KKZ      -0.180300
      6 C7          -3.3200    -1.5880     0.3810 cc         1 KKZ       0.151400
      7 C8          -2.5840    -3.5490     0.7840 cd         1 KKZ      -0.070000
      8 C10         -1.3160    -5.3430     1.6820 cc         1 KKZ      -0.105000
      9 C13         -4.1960    -0.5190    -0.1080 ca         1 KKZ      -0.024800
     10 C15         -4.5180     1.6800    -1.1330 ca         1 KKZ      -0.114000
     11 C17         -6.4440     0.2730    -0.6640 ca         1 KKZ      -0.114000
     12 C20          4.3390     1.7410     0.7140 ca         1 KKZ       0.337500
     13 C22          6.6880     1.2160     1.1090 ca         1 KKZ      -0.058000
     14 C24          5.6130     0.8180    -1.0250 ca         1 KKZ       0.586300
     15 C1           1.5020     0.6460     0.0590 c6         1 KKZ       0.100000
     16 O1           3.0220     3.1670     2.1520 o          1 KKZ      -0.593100
     17 C2           0.4790    -0.1350     0.9310 c6         1 KKZ       0.140800
     18 C3          -0.4540     1.9690     1.7690 c6         1 KKZ       0.140800
     19 C9          -2.3440    -4.9540     0.8500 cd         1 KKZ      -0.071000
     20 N2           1.7880     2.0080     0.6060 n          1 KKZ      -0.388800
     21 C11         -0.5640    -4.3650     2.4330 cc         1 KKZ      -0.140000
     22 C12         -0.8090    -2.9970     2.3690 cd         1 KKZ      -0.117000
     23 O2           5.7310     0.3590    -2.3130 os         1 KKZ      -0.524300
     24 C14         -3.6660     0.6820    -0.6270 ca         1 KKZ      -0.081000
     25 C16         -5.9070     1.4770    -1.1450 ca         1 KKZ       0.126000
     26 C18         -5.5910    -0.7250    -0.1590 ca         1 KKZ      -0.081000
     27 C19          3.0180     2.3450     1.2370 c          1 KKZ       0.518600
     28 C23          6.7540     0.7560    -0.2140 ca         1 KKZ      -0.142000
     29 C25          4.6200     0.3370    -3.2270 c3         1 KKZ       0.532000
     30 F1           4.1320     1.5750    -3.4740 f          1 KKZ      -0.098667
     31 C21          5.4620     1.7200     1.5720 ca         1 KKZ      -0.135000
     32 F2           5.0020    -0.1750    -4.4170 f          1 KKZ      -0.098667
     33 F3           3.6000    -0.4340    -2.7800 f          1 KKZ      -0.098667
     34 N4          -1.8370    -2.6370     1.4880 na         1 KKZ       0.134100
     35 N5           4.4380     1.3070    -0.5780 nb         1 KKZ      -0.712000
     36 H2           0.0460     3.0000    -0.0730 h1         1 KKZ       0.070700
     37 H3           0.7590     3.7320     1.3640 h1         1 KKZ       0.070700
     38 H4          -1.4190    -0.3380     2.9470 h1         1 KKZ       0.046700
     39 H5          -2.6720     0.5560     2.1020 h1         1 KKZ       0.046700
     40 H6          -1.0650    -6.3940     1.7910 ha         1 KKZ       0.127000
     41 H7          -4.1010     2.6040    -1.5240 ha         1 KKZ       0.128000
     42 H8          -7.5190     0.1120    -0.6860 ha         1 KKZ       0.128000
     43 H9           7.5610     1.1850     1.7580 ha         1 KKZ       0.132000
     44 H10          2.4090     0.0350    -0.0040 h1         1 KKZ       0.070700
     45 H11          1.1040     0.7480    -0.9600 h1         1 KKZ       0.070700
     46 H12          0.9570    -0.3860     1.8890 h1         1 KKZ       0.042450
     47 H13          0.2550    -1.0830     0.4220 h1         1 KKZ       0.042450
     48 H14         -1.3720     2.5620     1.8920 h1         1 KKZ       0.042450
     49 H15         -0.0130     1.8420     2.7690 h1         1 KKZ       0.042450
     50 H16         -2.9350    -5.6700     0.2880 ha         1 KKZ       0.145000
     51 H17          0.2270    -4.7310     3.0810 ha         1 KKZ       0.131000
     52 H18         -0.2760    -2.2310     2.9160 h4         1 KKZ       0.142000
     53 H19         -2.5920     0.8390    -0.6550 ha         1 KKZ       0.138500
     54 H20         -6.0170    -1.6570     0.2070 ha         1 KKZ       0.138500
     55 H21          7.6790     0.3570    -0.6170 ha         1 KKZ       0.149000
     56 H22          5.3780     2.0890     2.5910 ha         1 KKZ       0.147000
     57 Cl1         -6.9720     2.7240    -1.7800 cl         1 KKZ      -0.208000
@<TRIPOS>BOND
     1     1     4 1   
     2     1    17 1   
     3     1    18 1   
     4     2     6 1   
     5     2     7 2   
     6     3    18 1   
     7     3    20 1   
     8     3    36 1   
     9     3    37 1   
    10     4     5 1   
    11     4    38 1   
    12     4    39 1   
    13     5     6 2   
    14     5    34 1   
    15     6     9 1   
    16     7    19 1   
    17     7    34 1   
    18     8    19 2   
    19     8    21 1   
    20     8    40 1   
    21     9    24 ar  
    22     9    26 ar  
    23    10    24 ar  
    24    10    25 ar  
    25    10    41 1   
    26    11    25 ar  
    27    11    26 ar  
    28    11    42 1   
    29    12    27 1   
    30    12    31 ar  
    31    12    35 ar  
    32    13    28 ar  
    33    13    31 ar  
    34    13    43 1   
    35    14    23 1   
    36    14    28 ar  
    37    14    35 ar  
    38    15    17 1   
    39    15    20 1   
    40    15    44 1   
    41    15    45 1   
    42    16    27 2   
    43    17    46 1   
    44    17    47 1   
    45    18    48 1   
    46    18    49 1   
    47    19    50 1   
    48    20    27 1   
    49    21    22 2   
    50    21    51 1   
    51    22    34 1   
    52    22    52 1   
    53    23    29 1   
    54    24    53 1   
    55    25    57 1   
    56    26    54 1   
    57    28    55 1   
    58    29    30 1   
    59    29    32 1   
    60    29    33 1   
    61    31    56 1   
@<TRIPOS>SUBSTRUCTURE
     1 KKZ         1 TEMP              0 ****  ****    0 ROOT
