@<TRIPOS>MOLECULE
KKZ
   57    61     1     0     0
SMALL
abcg2


@<TRIPOS>ATOM
      1 N1          -0.7100     0.6490     1.3120 n3         1 KKZ      -0.722600
      2 N3          -3.3460    -2.8270     0.1950 nc         1 KKZ      -0.289600
      3 C4           0.5270     2.7310     1.0460 c6         1 KKZ       0.100000
      4 C5          -1.6790    -0.0960     2.1000 c3         1 KKZ       0.247000
      5 C6          -2.1850    -1.3210     1.4230 cd         1 KKZ      -0.180300
      6 C7          -3.1620    -1.5100     0.4630 cc         1 KKZ       0.151400
      7 C8          -2.4940    -3.4740     0.9630 cd         1 KKZ      -0.070000
      8 C10         -1.2990    -5.2870     1.9680 cc         1 KKZ      -0.105000
      9 C13         -3.9780    -0.4950    -0.2070 ca         1 KKZ      -0.024800
     10 C15         -4.3120     1.7500    -1.0460 ca         1 KKZ      -0.114000
     11 C17         -6.0560     0.1020    -1.2990 ca         1 KKZ      -0.114000
     12 C20          4.1410     1.6570     0.5920 ca         1 KKZ       0.337500
     13 C22          6.2840     0.6930     0.9570 ca         1 KKZ      -0.058000
     14 C24          5.3020     0.8670    -1.1790 ca         1 KKZ       0.586300
     15 C1           1.4220     0.6820     0.1170 c6         1 KKZ       0.100000
     16 O1           3.1230     3.3890     1.7940 o          1 KKZ      -0.593100
     17 C2           0.4910    -0.1060     1.0240 c6         1 KKZ       0.140800
     18 C3          -0.3890     1.9160     1.9400 c6         1 KKZ       0.140800
     19 C9          -2.2490    -4.8570     1.0890 cd         1 KKZ      -0.071000
     20 N2           1.7210     1.9740     0.7110 n          1 KKZ      -0.388800
     21 C11         -0.5690    -4.3500     2.7430 cc         1 KKZ      -0.140000
     22 C12         -0.8060    -3.0210     2.6150 cd         1 KKZ      -0.117000
     23 O2           5.4160     0.6440    -2.5270 os         1 KKZ      -0.524300
     24 C14         -3.5160     0.8050    -0.4160 ca         1 KKZ      -0.081000
     25 C16         -5.5780     1.3910    -1.4800 ca         1 KKZ       0.126000
     26 C18         -5.2530    -0.8320    -0.6670 ca         1 KKZ      -0.081000
     27 C19          2.9350     2.4040     1.0910 c          1 KKZ       0.518600
     28 C23          6.3780     0.4580    -0.4010 ca         1 KKZ      -0.142000
     29 C25          4.3730     0.8190    -3.3610 c3         1 KKZ       0.532000
     30 F1           3.9830     2.0860    -3.4520 f          1 KKZ      -0.098667
     31 C21          5.1520     1.3170     1.4720 ca         1 KKZ      -0.135000
     32 F2           4.7810     0.4320    -4.5610 f          1 KKZ      -0.098667
     33 F3           3.3150     0.0860    -3.0280 f          1 KKZ      -0.098667
     34 N4          -1.7580    -2.5910     1.7350 na         1 KKZ       0.134100
     35 N5           4.2230     1.4370    -0.7190 nb         1 KKZ      -0.712000
     36 H2           0.0060     2.9810     0.1170 h1         1 KKZ       0.070700
     37 H3           0.8040     3.6580     1.5390 h1         1 KKZ       0.070700
     38 H4          -1.2790    -0.3590     3.0920 h1         1 KKZ       0.046700
     39 H5          -2.5280     0.5670     2.2910 h1         1 KKZ       0.046700
     40 H6          -1.0960    -6.3430     2.0780 ha         1 KKZ       0.127000
     41 H7          -3.9410     2.7540    -1.2050 ha         1 KKZ       0.128000
     42 H8          -7.0430    -0.1730    -1.6450 ha         1 KKZ       0.128000
     43 H9           7.0880     0.3930     1.6130 ha         1 KKZ       0.132000
     44 H10          2.3270     0.1060    -0.0420 h1         1 KKZ       0.070700
     45 H11          0.9490     0.8350    -0.8560 h1         1 KKZ       0.070700
     46 H12          1.0340    -0.3830     1.9450 h1         1 KKZ       0.042450
     47 H13          0.2270    -1.0310     0.5070 h1         1 KKZ       0.042450
     48 H14         -1.3130     2.4750     2.1010 h1         1 KKZ       0.042450
     49 H15          0.0860     1.7790     2.9260 h1         1 KKZ       0.042450
     50 H16         -2.8230    -5.5420     0.4820 ha         1 KKZ       0.145000
     51 H17          0.1860    -4.6810     3.4400 ha         1 KKZ       0.131000
     52 H18         -0.2760    -2.2700     3.1800 h4         1 KKZ       0.142000
     53 H19         -2.5110     1.0750    -0.1130 ha         1 KKZ       0.138500
     54 H20         -5.6260    -1.8370    -0.5220 ha         1 KKZ       0.138500
     55 H21          7.2410    -0.0210    -0.8410 ha         1 KKZ       0.149000
     56 H22          5.0600     1.5200     2.5290 ha         1 KKZ       0.147000
     57 CL1         -6.5760     2.5690    -2.2690 cl         1 KKZ      -0.208000
@<TRIPOS>BOND
     1     1     4 1   
     2     1    17 1   
     3     1    18 1   
     4     2     6 1   
     5     2     7 2   
     6     3    18 1   
     7     3    20 1   
     8     3    36 1   
     9     3    37 1   
    10     4     5 1   
    11     4    38 1   
    12     4    39 1   
    13     5     6 2   
    14     5    34 1   
    15     6     9 1   
    16     7    19 1   
    17     7    34 1   
    18     8    19 2   
    19     8    21 1   
    20     8    40 1   
    21     9    24 ar  
    22     9    26 ar  
    23    10    24 ar  
    24    10    25 ar  
    25    10    41 1   
    26    11    25 ar  
    27    11    26 ar  
    28    11    42 1   
    29    12    27 1   
    30    12    31 ar  
    31    12    35 ar  
    32    13    28 ar  
    33    13    31 ar  
    34    13    43 1   
    35    14    23 1   
    36    14    28 ar  
    37    14    35 ar  
    38    15    17 1   
    39    15    20 1   
    40    15    44 1   
    41    15    45 1   
    42    16    27 2   
    43    17    46 1   
    44    17    47 1   
    45    18    48 1   
    46    18    49 1   
    47    19    50 1   
    48    20    27 1   
    49    21    22 2   
    50    21    51 1   
    51    22    34 1   
    52    22    52 1   
    53    23    29 1   
    54    24    53 1   
    55    25    57 1   
    56    26    54 1   
    57    28    55 1   
    58    29    30 1   
    59    29    32 1   
    60    29    33 1   
    61    31    56 1   
@<TRIPOS>SUBSTRUCTURE
     1 KKZ         1 TEMP              0 ****  ****    0 ROOT
