@<TRIPOS>MOLECULE
KL0
   33    33     1     0     0
SMALL
No Charge or Current Charge


@<TRIPOS>ATOM
      1 C10        263.6720   349.8170   -59.0710 c3         1 KL0       0.165800
      2 C02        257.8910   351.2890   -59.0030 ca         1 KL0       0.597900
      3 C03        257.6270   352.2090   -60.0190 ca         1 KL0      -0.233000
      4 C04        258.5820   352.3760   -61.0330 ca         1 KL0      -0.000300
      5 C05        259.7480   351.5970   -60.9530 ca         1 KL0      -0.216000
      6 C06        259.9120   350.6990   -59.8800 ca         1 KL0       0.398300
      7 C08        261.1690   349.8520   -59.7650 c3         1 KL0      -0.123700
      8 C09        262.3750   350.6520   -59.2140 c3         1 KL0      -0.068400
      9 C12        264.5270   350.1650   -61.3820 c3         1 KL0       0.151100
     10 C13        265.2710   348.2340   -60.0640 c3         1 KL0       0.151100
     11 N01        258.9860   350.5490   -58.9060 nb         1 KL0      -0.753000
     12 N02        257.0600   351.0550   -57.9850 nv         1 KL0      -1.055900
     13 N11        264.1720   349.1900   -60.3230 n3         1 KL0      -0.716600
     14 H1         263.4740   349.0320   -58.3280 h1         1 KL0       0.030200
     15 H2         264.4510   350.4640   -58.6450 h1         1 KL0       0.030200
     16 H3         256.7020   352.7770   -60.0220 ha         1 KL0       0.117000
     17 H4         260.5220   351.6820   -61.7110 ha         1 KL0       0.121000
     18 H5         257.8850   352.8590   -63.0270 hc         1 KL0       0.045700
     19 H6         257.7200   354.1890   -61.8670 hc         1 KL0       0.045700
     20 H7         259.3120   353.7800   -62.5210 hc         1 KL0       0.045700
     21 H8         260.9890   348.9840   -59.1190 hc         1 KL0       0.062700
     22 H9         261.4220   349.4480   -60.7520 hc         1 KL0       0.062700
     23 H10        262.5620   351.5240   -59.8510 hc         1 KL0       0.044200
     24 H11        262.1120   351.0470   -58.2260 hc         1 KL0       0.044200
     25 H12        263.6560   350.7630   -61.6800 h1         1 KL0       0.029033
     26 H13        265.3150   350.8480   -61.0370 h1         1 KL0       0.029033
     27 H14        264.8910   349.6470   -62.2790 h1         1 KL0       0.029033
     28 H15        264.9590   347.4690   -59.3420 h1         1 KL0       0.029033
     29 H16        265.5680   347.7220   -60.9890 h1         1 KL0       0.029033
     30 H17        266.1520   348.7510   -59.6590 h1         1 KL0       0.029033
     31 H18        257.4740   350.5530   -57.2090 hn         1 KL0       0.466500
     32 H19        256.3850   351.7750   -57.7530 hn         1 KL0       0.466500
     33 C07        258.3630   353.3550   -62.1740 c3         1 KL0      -0.052800
@<TRIPOS>BOND
     1     1     8 1   
     2     1    13 1   
     3     1    14 1   
     4     1    15 1   
     5     2     3 ar  
     6     2    11 ar  
     7     2    12 1   
     8     3     4 ar  
     9     3    16 1   
    10     4     5 ar  
    11     4    33 1   
    12     5     6 ar  
    13     5    17 1   
    14     6     7 1   
    15     6    11 ar  
    16     7     8 1   
    17     7    21 1   
    18     7    22 1   
    19     8    23 1   
    20     8    24 1   
    21     9    13 1   
    22     9    25 1   
    23     9    26 1   
    24     9    27 1   
    25    10    13 1   
    26    10    28 1   
    27    10    29 1   
    28    10    30 1   
    29    12    31 1   
    30    12    32 1   
    31    18    33 1   
    32    19    33 1   
    33    20    33 1   
@<TRIPOS>SUBSTRUCTURE
     1 KL0         1 TEMP              0 ****  ****    0 ROOT
