@<TRIPOS>MOLECULE
KL0
   33    33     1     0     0
SMALL
bcc


@<TRIPOS>ATOM
      1 C10        263.5690   349.7020   -59.0580 c3         1 KL0       0.165800
      2 C02        258.1300   351.3900   -58.9090 ca         1 KL0       0.663200
      3 C03        257.7190   352.2360   -59.9540 ca         1 KL0      -0.316300
      4 C04        258.4910   352.3140   -61.0950 ca         1 KL0      -0.000300
      5 C05        259.6530   351.5360   -61.1600 ca         1 KL0      -0.299300
      6 C06        259.9850   350.7320   -60.0840 ca         1 KL0       0.463600
      7 C08        261.2470   349.9190   -60.0830 c3         1 KL0      -0.123700
      8 C09        262.3410   350.5820   -59.2450 c3         1 KL0      -0.068400
      9 C12        264.6460   350.2640   -61.1370 c3         1 KL0       0.151100
     10 C13        265.1580   348.2150   -60.0310 c3         1 KL0       0.151100
     11 N01        259.2390   350.6620   -58.9780 nb         1 KL0      -0.753000
     12 N02        257.3650   351.2490   -57.7850 nv         1 KL0      -0.945500
     13 N11        264.1370   349.2040   -60.2960 n3         1 KL0      -0.716600
     14 H1         263.2800   348.8360   -58.4550 h1         1 KL0       0.030200
     15 H2         264.3170   350.2570   -58.4640 h1         1 KL0       0.030200
     16 H3         256.8090   352.8160   -59.8600 ha         1 KL0       0.135000
     17 H4         260.2880   351.5640   -62.0370 ha         1 KL0       0.139000
     18 H5         258.0130   352.6320   -63.1620 hc         1 KL0       0.045700
     19 H6         257.1590   353.7090   -62.0550 hc         1 KL0       0.045700
     20 H7         258.8680   353.9640   -62.4090 hc         1 KL0       0.045700
     21 H8         261.0350   348.9270   -59.6750 hc         1 KL0       0.062700
     22 H9         261.6000   349.7770   -61.1050 hc         1 KL0       0.062700
     23 H10        262.6090   351.5440   -59.6900 hc         1 KL0       0.044200
     24 H11        261.9470   350.8110   -58.2520 hc         1 KL0       0.044200
     25 H12        263.8470   350.9460   -61.4280 h1         1 KL0       0.029033
     26 H13        265.4370   350.8610   -60.6530 h1         1 KL0       0.029033
     27 H14        265.0620   349.8420   -62.0530 h1         1 KL0       0.029033
     28 H15        264.7400   347.3860   -59.4580 h1         1 KL0       0.029033
     29 H16        265.5420   347.8110   -60.9690 h1         1 KL0       0.029033
     30 H17        266.0160   348.6130   -59.4640 h1         1 KL0       0.029033
     31 H18        257.8300   350.8600   -56.9810 hn         1 KL0       0.411300
     32 H19        256.7190   351.9890   -57.5660 hn         1 KL0       0.411300
     33 C07        258.1060   353.2030   -62.2370 c3         1 KL0      -0.052800
@<TRIPOS>BOND
     1     1     8 1   
     2     1    13 1   
     3     1    14 1   
     4     1    15 1   
     5     2     3 ar  
     6     2    11 ar  
     7     2    12 1   
     8     3     4 ar  
     9     3    16 1   
    10     4     5 ar  
    11     4    33 1   
    12     5     6 ar  
    13     5    17 1   
    14     6     7 1   
    15     6    11 ar  
    16     7     8 1   
    17     7    21 1   
    18     7    22 1   
    19     8    23 1   
    20     8    24 1   
    21     9    13 1   
    22     9    25 1   
    23     9    26 1   
    24     9    27 1   
    25    10    13 1   
    26    10    28 1   
    27    10    29 1   
    28    10    30 1   
    29    12    31 1   
    30    12    32 1   
    31    18    33 1   
    32    19    33 1   
    33    20    33 1   
@<TRIPOS>SUBSTRUCTURE
     1 KL0         1 TEMP              0 ****  ****    0 ROOT
