@<TRIPOS>MOLECULE
KL1
   49    50     1     0     0
SMALL
No Charge or Current Charge


@<TRIPOS>ATOM
      1 C11          0.0070    -0.9840     0.2610 ca         1 KL1      -0.087300
      2 C13          2.3000    -0.7980    -0.5860 ca         1 KL1      -0.064300
      3 C14          2.4950    -2.1720    -0.3550 ca         1 KL1      -0.130000
      4 C15          1.4550    -2.9510     0.1760 ca         1 KL1       0.134000
      5 C16          0.2130    -2.3630     0.4830 ca         1 KL1       0.131000
      6 C02         -5.8200     0.0610     0.4000 ca         1 KL1       0.599900
      7 C05         -3.7900     1.6400    -0.4550 ca         1 KL1      -0.216000
      8 C06         -3.6550     0.2470    -0.2920 ca         1 KL1       0.397300
      9 C08         -2.3330    -0.4440    -0.5870 c3         1 KL1      -0.122700
     10 C17          3.4260     0.0520    -1.1590 c3         1 KL1      -0.032100
     11 C18          4.2700     0.7170    -0.0510 c3         1 KL1      -0.076400
     12 C03         -6.0650     1.4290     0.2690 ca         1 KL1      -0.233000
     13 C04         -5.0190     2.2550    -0.1690 ca         1 KL1       0.001700
     14 C09         -1.3300    -0.3220     0.5810 c3         1 KL1      -0.026100
     15 C12          1.0570    -0.2110    -0.2760 ca         1 KL1      -0.101000
     16 C19          5.4240     1.5800    -0.6110 c3         1 KL1       0.164800
     17 C21          6.8590     1.5210     1.4220 c3         1 KL1       0.148600
     18 C22          7.0980     3.3360    -0.2110 c3         1 KL1       0.148600
     19 F15          1.6560    -4.2710     0.3900 f          1 KL1      -0.164000
     20 F16         -0.7830    -3.1270     0.9910 f          1 KL1      -0.160000
     21 N01         -4.6690    -0.5380     0.1340 nb         1 KL1      -0.750000
     22 N02         -6.7410    -0.8180     0.8010 nv         1 KL1      -1.052900
     23 N20          6.1740     2.3590     0.4080 n3         1 KL1      -0.709600
     24 H1           3.4500    -2.6390    -0.5860 ha         1 KL1       0.133000
     25 H2          -2.9450     2.2290    -0.8000 ha         1 KL1       0.120000
     26 H3          -5.5210     3.9950    -1.3580 hc         1 KL1       0.046367
     27 H4          -5.9760     4.1360     0.3490 hc         1 KL1       0.046367
     28 H5          -4.2810     4.2980    -0.1290 hc         1 KL1       0.046367
     29 H6          -2.4970    -1.5050    -0.8110 hc         1 KL1       0.056700
     30 H7          -1.8860    -0.0080    -1.4880 hc         1 KL1       0.056700
     31 H8           4.0810    -0.5630    -1.7890 hc         1 KL1       0.048700
     32 H9           3.0140     0.8290    -1.8140 hc         1 KL1       0.048700
     33 H10          3.6180     1.3470     0.5670 hc         1 KL1       0.052200
     34 H11          4.6730    -0.0680     0.5990 hc         1 KL1       0.052200
     35 H12         -7.0420     1.8400     0.5050 ha         1 KL1       0.119000
     36 H13         -1.7720    -0.7650     1.4830 hc         1 KL1       0.065700
     37 H14         -1.1790     0.7390     0.8150 hc         1 KL1       0.065700
     38 H15          0.9080     0.8520    -0.4540 ha         1 KL1       0.121000
     39 H16          6.1140     0.9270    -1.1640 h1         1 KL1       0.027700
     40 H17          4.9890     2.2760    -1.3410 h1         1 KL1       0.027700
     41 H18          7.5810     0.8420     0.9470 h1         1 KL1       0.030367
     42 H19          7.4010     2.1490     2.1400 h1         1 KL1       0.030367
     43 H20          6.1400     0.9180     1.9920 h1         1 KL1       0.030367
     44 H21          6.5570     4.0040    -0.8940 h1         1 KL1       0.030367
     45 H22          7.5790     3.9570     0.5560 h1         1 KL1       0.030367
     46 H23          7.8850     2.8230    -0.7830 h1         1 KL1       0.030367
     47 H24         -6.5050    -1.7870     0.6240 hn         1 KL1       0.468000
     48 H25         -7.7150    -0.5610     0.6950 hn         1 KL1       0.468000
     49 C07         -5.2100     3.7530    -0.3350 c3         1 KL1      -0.053800
@<TRIPOS>BOND
     1     1     5 ar  
     2     1    14 1   
     3     1    15 ar  
     4     2     3 ar  
     5     2    10 1   
     6     2    15 ar  
     7     3     4 ar  
     8     3    24 1   
     9     4     5 ar  
    10     4    19 1   
    11     5    20 1   
    12     6    12 ar  
    13     6    21 ar  
    14     6    22 1   
    15     7     8 ar  
    16     7    13 ar  
    17     7    25 1   
    18     8     9 1   
    19     8    21 ar  
    20     9    14 1   
    21     9    29 1   
    22     9    30 1   
    23    10    11 1   
    24    10    31 1   
    25    10    32 1   
    26    11    16 1   
    27    11    33 1   
    28    11    34 1   
    29    12    13 ar  
    30    12    35 1   
    31    13    49 1   
    32    14    36 1   
    33    14    37 1   
    34    15    38 1   
    35    16    23 1   
    36    16    39 1   
    37    16    40 1   
    38    17    23 1   
    39    17    41 1   
    40    17    42 1   
    41    17    43 1   
    42    18    23 1   
    43    18    44 1   
    44    18    45 1   
    45    18    46 1   
    46    22    47 1   
    47    22    48 1   
    48    26    49 1   
    49    27    49 1   
    50    28    49 1   
@<TRIPOS>SUBSTRUCTURE
     1 KL1         1 TEMP              0 ****  ****    0 ROOT
