@<TRIPOS>MOLECULE
KL1
   49    50     1     0     0
SMALL
bcc


@<TRIPOS>ATOM
      1 C11          0.0380    -0.8200     0.0080 ca         1 KL1      -0.087300
      2 C13          2.3250    -0.5950    -0.8110 ca         1 KL1      -0.064300
      3 C14          2.4730    -1.9790    -0.7730 ca         1 KL1      -0.148000
      4 C15          1.4170    -2.7610    -0.3560 ca         1 KL1       0.098900
      5 C16          0.2170    -2.1930     0.0280 ca         1 KL1       0.095900
      6 C02         -5.4150     0.2520     1.0720 ca         1 KL1       0.665200
      7 C05         -4.0910     1.5310    -0.9330 ca         1 KL1      -0.299300
      8 C06         -3.6030     0.3870    -0.3250 ca         1 KL1       0.462600
      9 C08         -2.2920    -0.2160    -0.7390 c3         1 KL1      -0.122700
     10 C17          3.4800     0.2850    -1.1960 c3         1 KL1      -0.032100
     11 C18          4.2750     0.7390     0.0310 c3         1 KL1      -0.076400
     12 C03         -5.9870     1.4040     0.5070 ca         1 KL1      -0.316300
     13 C04         -5.3190     2.0540    -0.5110 ca         1 KL1       0.001700
     14 C09         -1.2710    -0.2030     0.4050 c3         1 KL1      -0.026100
     15 C12          1.1110    -0.0400    -0.4180 ca         1 KL1      -0.119000
     16 C19          5.4860     1.5690    -0.3670 c3         1 KL1       0.164800
     17 C21          6.8390     1.1240     1.5790 c3         1 KL1       0.148600
     18 C22          7.1840     3.1000     0.3020 c3         1 KL1       0.148600
     19 F15          1.5420    -4.0940    -0.3150 f          1 KL1      -0.128900
     20 F16         -0.7800    -2.9980     0.4240 f          1 KL1      -0.124900
     21 N01         -4.2510    -0.2400     0.6570 nb         1 KL1      -0.750000
     22 N02         -6.0210    -0.3850     2.1170 nv         1 KL1      -0.942500
     23 N20          6.2060     2.1360     0.7600 n3         1 KL1      -0.709600
     24 H1           3.4000    -2.4500    -1.0740 ha         1 KL1       0.151000
     25 H2          -3.5260     2.0140    -1.7200 ha         1 KL1       0.138000
     26 H3          -6.5070     2.9850    -2.0270 hc         1 KL1       0.046367
     27 H4          -6.5400     3.8280    -0.4850 hc         1 KL1       0.046367
     28 H5          -5.1180     3.9380    -1.5300 hc         1 KL1       0.046367
     29 H6          -2.4650    -1.2460    -1.0630 hc         1 KL1       0.056700
     30 H7          -1.8880     0.3240    -1.5970 hc         1 KL1       0.056700
     31 H8           4.1420    -0.2540    -1.8790 hc         1 KL1       0.048700
     32 H9           3.1150     1.1620    -1.7360 hc         1 KL1       0.048700
     33 H10          3.6270     1.3320     0.6840 hc         1 KL1       0.052200
     34 H11          4.5760    -0.1430     0.6020 hc         1 KL1       0.052200
     35 H12         -6.9390     1.7720     0.8700 ha         1 KL1       0.137000
     36 H13         -1.6960    -0.7090     1.2730 hc         1 KL1       0.065700
     37 H14         -1.0900     0.8320     0.7060 hc         1 KL1       0.065700
     38 H15          0.9910     1.0370    -0.4340 ha         1 KL1       0.139000
     39 H16          6.1520     0.9610    -1.0060 h1         1 KL1       0.027700
     40 H17          5.1430     2.4020    -0.9890 h1         1 KL1       0.027700
     41 H18          7.5510     0.4980     1.0170 h1         1 KL1       0.030367
     42 H19          7.3890     1.6010     2.3920 h1         1 KL1       0.030367
     43 H20          6.1010     0.4650     2.0340 h1         1 KL1       0.030367
     44 H21          6.6960     3.8830    -0.2800 h1         1 KL1       0.030367
     45 H22          7.6740     3.5720     1.1550 h1         1 KL1       0.030367
     46 H23          7.9710     2.6560    -0.3300 h1         1 KL1       0.030367
     47 H24         -5.7250    -1.3320     2.2910 hn         1 KL1       0.412800
     48 H25         -7.0100    -0.2410     2.2360 hn         1 KL1       0.412800
     49 C07         -5.8990     3.2710    -1.1660 c3         1 KL1      -0.053800
@<TRIPOS>BOND
     1     1     5 ar  
     2     1    14 1   
     3     1    15 ar  
     4     2     3 ar  
     5     2    10 1   
     6     2    15 ar  
     7     3     4 ar  
     8     3    24 1   
     9     4     5 ar  
    10     4    19 1   
    11     5    20 1   
    12     6    12 ar  
    13     6    21 ar  
    14     6    22 1   
    15     7     8 ar  
    16     7    13 ar  
    17     7    25 1   
    18     8     9 1   
    19     8    21 ar  
    20     9    14 1   
    21     9    29 1   
    22     9    30 1   
    23    10    11 1   
    24    10    31 1   
    25    10    32 1   
    26    11    16 1   
    27    11    33 1   
    28    11    34 1   
    29    12    13 ar  
    30    12    35 1   
    31    13    49 1   
    32    14    36 1   
    33    14    37 1   
    34    15    38 1   
    35    16    23 1   
    36    16    39 1   
    37    16    40 1   
    38    17    23 1   
    39    17    41 1   
    40    17    42 1   
    41    17    43 1   
    42    18    23 1   
    43    18    44 1   
    44    18    45 1   
    45    18    46 1   
    46    22    47 1   
    47    22    48 1   
    48    26    49 1   
    49    27    49 1   
    50    28    49 1   
@<TRIPOS>SUBSTRUCTURE
     1 KL1         1 TEMP              0 ****  ****    0 ROOT
