@<TRIPOS>MOLECULE
KL3
   34    36     1     0     0
SMALL
No Charge or Current Charge


@<TRIPOS>ATOM
      1 C1           1.8700     7.3250    18.9820 ca         1 KL3       0.015700
      2 C2           1.3630     6.0080    18.8710 ca         1 KL3      -0.068300
      3 C3           1.3360     8.4730    18.1050 c6         1 KL3      -0.176400
      4 C4           2.8860     7.6000    19.9190 ca         1 KL3      -0.079000
      5 C5           1.8800     4.9970    19.7010 ca         1 KL3      -0.123000
      6 C6           0.2380     5.6570    17.8910 c6         1 KL3      -0.019100
      7 C7           0.0120     8.1300    17.3700 c6         1 KL3      -0.047400
      8 C8           2.4320     8.9830    17.1340 c          1 KL3       0.725000
      9 C9           3.4190     6.5900    20.7580 cp         1 KL3      -0.069000
     10 C10          2.8940     5.2820    20.6290 ca         1 KL3      -0.124000
     11 C11          0.0370     6.7060    16.7770 c6         1 KL3      -0.071400
     12 O12          3.0270     8.1580    16.4560 o          1 KL3      -0.720500
     13 O13          2.8970    10.0910    17.3630 o          1 KL3      -0.720500
     14 C14          4.5000     6.8970    21.7490 cp         1 KL3       0.006000
     15 C15          4.5490     6.2420    23.0060 ca         1 KL3      -0.100000
     16 C16          5.5090     7.8530    21.4610 ca         1 KL3      -0.100000
     17 C17          5.5630     6.5310    23.9370 ca         1 KL3      -0.110500
     18 C18          6.5240     8.1410    22.3910 ca         1 KL3      -0.110500
     19 C19          6.5490     7.4800    23.6280 ca         1 KL3       0.105000
     20 Cl20         7.8180     7.8410    24.7910 cl         1 KL3      -0.237000
     21 H21          1.0930     9.3190    18.7630 hc         1 KL3       0.043700
     22 H22          3.2560     8.6180    20.0050 ha         1 KL3       0.114000
     23 H23          1.4940     3.9830    19.6270 ha         1 KL3       0.090000
     24 H25          0.4300     4.6770    17.4330 hc         1 KL3       0.025700
     25 H24         -0.6980     5.5500    18.4560 hc         1 KL3       0.025700
     26 H26         -0.8270     8.2060    18.0760 hc         1 KL3       0.029700
     27 H27         -0.1850     8.8680    16.5800 hc         1 KL3       0.029700
     28 H28          3.2820     4.4760    21.2460 ha         1 KL3       0.092000
     29 H30          0.8420     6.6200    16.0350 hc         1 KL3       0.039700
     30 H29         -0.9000     6.5050    16.2410 hc         1 KL3       0.039700
     31 H32          3.7860     5.5140    23.2690 ha         1 KL3       0.128500
     32 H33          5.5140     8.3650    20.5020 ha         1 KL3       0.128500
     33 H34          5.5820     6.0210    24.8970 ha         1 KL3       0.118500
     34 H35          7.2900     8.8740    22.1510 ha         1 KL3       0.118500
@<TRIPOS>BOND
     1     1     2 ar  
     2     1     3 1   
     3     1     4 ar  
     4     2     5 ar  
     5     2     6 1   
     6     3     7 1   
     7     3     8 1   
     8     3    21 1   
     9     4     9 ar  
    10     4    22 1   
    11     5    10 ar  
    12     5    23 1   
    13     6    11 1   
    14     6    24 1   
    15     6    25 1   
    16     7    11 1   
    17     7    26 1   
    18     7    27 1   
    19     8    12 1   
    20     8    13 1   
    21     9    10 ar  
    22     9    14 1   
    23    10    28 1   
    24    11    29 1   
    25    11    30 1   
    26    14    15 ar  
    27    14    16 ar  
    28    15    17 ar  
    29    15    31 1   
    30    16    18 ar  
    31    16    32 1   
    32    17    19 ar  
    33    17    33 1   
    34    18    19 ar  
    35    18    34 1   
    36    19    20 1   
@<TRIPOS>SUBSTRUCTURE
     1 KL3         1 TEMP              0 ****  ****    0 ROOT
