@<TRIPOS>MOLECULE
KL3
   34    36     1     0     0
SMALL
abcg2


@<TRIPOS>ATOM
      1 C1           1.9230     7.3290    18.9850 ca         1 KL3       0.015700
      2 C2           1.4230     6.0320    18.8470 ca         1 KL3      -0.068300
      3 C3           1.4220     8.4750    18.1490 c6         1 KL3      -0.176400
      4 C4           2.9110     7.5690    19.9370 ca         1 KL3      -0.079000
      5 C5           1.9380     5.0210    19.6600 ca         1 KL3      -0.123000
      6 C6           0.3170     5.7060    17.8760 c6         1 KL3      -0.019100
      7 C7           0.0480     8.1670    17.5510 c6         1 KL3      -0.047400
      8 C8           2.4240     8.8940    17.0280 c          1 KL3       0.725000
      9 C9           3.4270     6.5660    20.7500 cp         1 KL3      -0.069000
     10 C10          2.9220     5.2720    20.5970 ca         1 KL3      -0.124000
     11 C11          0.0550     6.8110    16.8610 c6         1 KL3      -0.071400
     12 O12          3.4340     8.1900    16.8460 o          1 KL3      -0.720500
     13 O13          2.1090     9.9240    16.4000 o          1 KL3      -0.720500
     14 C14          4.4810     6.8620    21.7400 cp         1 KL3       0.006000
     15 C15          4.4820     6.2580    22.9980 ca         1 KL3      -0.100000
     16 C16          5.5060     7.7630    21.4450 ca         1 KL3      -0.100000
     17 C17          5.4620     6.5450    23.9350 ca         1 KL3      -0.110500
     18 C18          6.4930     8.0620    22.3700 ca         1 KL3      -0.110500
     19 C19          6.4610     7.4510    23.6140 ca         1 KL3       0.105000
     20 CL20         7.6870     7.8260    24.7810 cl         1 KL3      -0.237000
     21 H21          1.3180     9.3470    18.8050 hc         1 KL3       0.043700
     22 H22          3.2710     8.5850    20.0580 ha         1 KL3       0.114000
     23 H23          1.5580     4.0110    19.5480 ha         1 KL3       0.090000
     24 H25          0.5380     4.7630    17.3700 hc         1 KL3       0.025700
     25 H24         -0.6000     5.5250    18.4480 hc         1 KL3       0.025700
     26 H26         -0.7080     8.1600    18.3440 hc         1 KL3       0.029700
     27 H27         -0.2340     8.9600    16.8590 hc         1 KL3       0.029700
     28 H28          3.3110     4.4580    21.1960 ha         1 KL3       0.092000
     29 H30          0.8210     6.7940    16.0790 hc         1 KL3       0.039700
     30 H29         -0.8980     6.6280    16.3610 hc         1 KL3       0.039700
     31 H32          3.6940     5.5650    23.2650 ha         1 KL3       0.128500
     32 H33          5.5500     8.2310    20.4700 ha         1 KL3       0.128500
     33 H34          5.4380     6.0730    24.9080 ha         1 KL3       0.118500
     34 H35          7.2810     8.7580    22.1190 ha         1 KL3       0.118500
@<TRIPOS>BOND
     1     1     2 ar  
     2     1     3 1   
     3     1     4 ar  
     4     2     5 ar  
     5     2     6 1   
     6     3     7 1   
     7     3     8 1   
     8     3    21 1   
     9     4     9 ar  
    10     4    22 1   
    11     5    10 ar  
    12     5    23 1   
    13     6    11 1   
    14     6    24 1   
    15     6    25 1   
    16     7    11 1   
    17     7    26 1   
    18     7    27 1   
    19     8    12 1   
    20     8    13 1   
    21     9    10 ar  
    22     9    14 1   
    23    10    28 1   
    24    11    29 1   
    25    11    30 1   
    26    14    15 ar  
    27    14    16 ar  
    28    15    17 ar  
    29    15    31 1   
    30    16    18 ar  
    31    16    32 1   
    32    17    19 ar  
    33    17    33 1   
    34    18    19 ar  
    35    18    34 1   
    36    19    20 1   
@<TRIPOS>SUBSTRUCTURE
     1 KL3         1 TEMP              0 ****  ****    0 ROOT
