@<TRIPOS>MOLECULE
KL4
   50    52     1     0     0
SMALL
No Charge or Current Charge


@<TRIPOS>ATOM
      1 C02          5.7680    -0.2190    -0.8030 ca         1 KL4       0.599900
      2 C03          6.0030    -1.5230    -0.3630 ca         1 KL4      -0.231000
      3 C04          4.9080    -2.2940     0.0520 ca         1 KL4       0.001700
      4 C05          3.6390    -1.6950    -0.0070 ca         1 KL4      -0.216000
      5 C06          3.5180    -0.3690    -0.4670 ca         1 KL4       0.396300
      6 C07          5.0840    -3.7230     0.5390 c3         1 KL4      -0.053800
      7 C08          2.1580     0.3080    -0.5310 c3         1 KL4      -0.124700
      8 C09          1.7000     0.8450     0.8420 c3         1 KL4      -0.030100
      9 C11          0.3260     1.4960     0.7720 ca         1 KL4      -0.051300
     10 C12          0.2060     2.8790     0.5370 ca         1 KL4      -0.150000
     11 C13         -1.0640     3.4700     0.4650 ca         1 KL4       0.171000
     12 C14         -2.2220     2.6940     0.6240 ca         1 KL4      -0.155000
     13 C15         -2.1140     1.3100     0.8590 ca         1 KL4      -0.050300
     14 C16         -0.8370     0.7180     0.9300 ca         1 KL4      -0.126000
     15 C17         -3.3650     0.4560     1.0230 c3         1 KL4      -0.030100
     16 C18         -3.7900    -0.2120    -0.3040 c3         1 KL4      -0.069400
     17 C22         -5.0870    -1.0510    -0.2100 c5         1 KL4       0.143500
     18 C23         -5.5170    -1.6980    -1.5440 c5         1 KL4      -0.112400
     19 C24         -6.6050    -2.6960    -1.0600 c5         1 KL4      -0.111400
     20 C25         -6.1820    -3.0140     0.4070 c5         1 KL4       0.133800
     21 F13         -1.1740     4.7970     0.2380 f          1 KL4      -0.183000
     22 N01          4.5820     0.3660    -0.8600 nb         1 KL4      -0.753000
     23 N02          6.7330     0.6080    -1.2110 nv         1 KL4      -1.053900
     24 N21         -4.9340    -2.2470     0.6370 n7         1 KL4      -0.827400
     25 H1           7.0110    -1.9260    -0.3460 ha         1 KL4       0.119000
     26 H2           2.7540    -2.2450     0.3000 ha         1 KL4       0.121000
     27 H3           4.9760    -4.4330    -0.2890 hc         1 KL4       0.046367
     28 H4           6.0760    -3.8730     0.9830 hc         1 KL4       0.046367
     29 H5           4.3390    -3.9780     1.3010 hc         1 KL4       0.046367
     30 H6           2.1740     1.1350    -1.2510 hc         1 KL4       0.057200
     31 H7           1.4120    -0.4050    -0.9030 hc         1 KL4       0.057200
     32 H8           1.6870     0.0210     1.5670 hc         1 KL4       0.057200
     33 H9           2.4420     1.5630     1.2120 hc         1 KL4       0.057200
     34 H10          1.0920     3.4950     0.4080 ha         1 KL4       0.133000
     35 H11         -3.1980     3.1670     0.5610 ha         1 KL4       0.129000
     36 H12         -0.7500    -0.3520     1.1040 ha         1 KL4       0.115000
     37 H13         -3.1900    -0.3180     1.7810 hc         1 KL4       0.057700
     38 H14         -4.1940     1.0680     1.3990 hc         1 KL4       0.057700
     39 H15         -3.9290     0.5750    -1.0550 hc         1 KL4       0.043700
     40 H16         -2.9640    -0.8380    -0.6660 hc         1 KL4       0.043700
     41 H17         -5.8890    -0.4030     0.1770 h1         1 KL4       0.065700
     42 H18         -5.9070    -0.9660    -2.2610 hc         1 KL4       0.047700
     43 H19         -4.6830    -2.2200    -2.0290 hc         1 KL4       0.047700
     44 H20         -7.6030    -2.2430    -1.0850 hc         1 KL4       0.046700
     45 H21         -6.6420    -3.5950    -1.6850 hc         1 KL4       0.046700
     46 H22         -6.9660    -2.6840     1.1040 h1         1 KL4       0.052200
     47 H23         -6.0270    -4.0900     0.5710 h1         1 KL4       0.052200
     48 H24          6.4570     1.5800    -1.2720 hn         1 KL4       0.468500
     49 H25          7.6780     0.4230    -0.8920 hn         1 KL4       0.468500
     50 H26         -4.1500    -2.7910     0.2600 hn         1 KL4       0.396000
@<TRIPOS>BOND
     1     1     2 ar  
     2     1    22 ar  
     3     1    23 1   
     4     2     3 ar  
     5     2    25 1   
     6     3     4 ar  
     7     3     6 1   
     8     4     5 ar  
     9     4    26 1   
    10     5     7 1   
    11     5    22 ar  
    12     6    27 1   
    13     6    28 1   
    14     6    29 1   
    15     7     8 1   
    16     7    30 1   
    17     7    31 1   
    18     8     9 1   
    19     8    32 1   
    20     8    33 1   
    21     9    10 ar  
    22     9    14 ar  
    23    10    11 ar  
    24    10    34 1   
    25    11    12 ar  
    26    11    21 1   
    27    12    13 ar  
    28    12    35 1   
    29    13    14 ar  
    30    13    15 1   
    31    14    36 1   
    32    15    16 1   
    33    15    37 1   
    34    15    38 1   
    35    16    17 1   
    36    16    39 1   
    37    16    40 1   
    38    17    18 1   
    39    17    24 1   
    40    17    41 1   
    41    18    19 1   
    42    18    42 1   
    43    18    43 1   
    44    19    20 1   
    45    19    44 1   
    46    19    45 1   
    47    20    24 1   
    48    20    46 1   
    49    20    47 1   
    50    23    48 1   
    51    23    49 1   
    52    24    50 1   
@<TRIPOS>SUBSTRUCTURE
     1 KL4         1 TEMP              0 ****  ****    0 ROOT
