@<TRIPOS>MOLECULE
KL4
   50    52     1     0     0
SMALL
abcg2


@<TRIPOS>ATOM
      1 C02          5.6800    -0.1480    -0.3490 ca         1 KL4       0.599900
      2 C03          5.9250    -1.5170    -0.1380 ca         1 KL4      -0.231000
      3 C04          4.8560    -2.3870    -0.0710 ca         1 KL4       0.001700
      4 C05          3.5680    -1.8600    -0.2180 ca         1 KL4      -0.216000
      5 C06          3.4170    -0.5000    -0.4190 ca         1 KL4       0.396300
      6 C07          5.0570    -3.8560     0.1430 c3         1 KL4      -0.053800
      7 C08          2.0540     0.1200    -0.5330 c3         1 KL4      -0.124700
      8 C09          1.7120     0.9620     0.7050 c3         1 KL4      -0.030100
      9 C11          0.3410     1.5690     0.6020 ca         1 KL4      -0.051300
     10 C12          0.1770     2.8860     0.1860 ca         1 KL4      -0.150000
     11 C13         -1.1050     3.3900     0.0710 ca         1 KL4       0.171000
     12 C14         -2.2300     2.6430     0.3480 ca         1 KL4      -0.155000
     13 C15         -2.0730     1.3220     0.7640 ca         1 KL4      -0.050300
     14 C16         -0.7880     0.8030     0.8860 ca         1 KL4      -0.126000
     15 C17         -3.2760     0.4610     1.0260 c3         1 KL4      -0.030100
     16 C18         -3.8800    -0.0740    -0.2750 c3         1 KL4      -0.069400
     17 C22         -5.0880    -0.9670    -0.0590 c5         1 KL4       0.143500
     18 C23         -5.7350    -1.4680    -1.3610 c5         1 KL4      -0.112400
     19 C24         -6.4250    -2.7820    -0.9580 c5         1 KL4      -0.111400
     20 C25         -5.8950    -3.0640     0.4690 c5         1 KL4       0.133800
     21 F13         -1.2580     4.6670    -0.3260 f          1 KL4      -0.183000
     22 N01          4.4520     0.3410    -0.4830 nb         1 KL4      -0.753000
     23 N02          6.7160     0.7330    -0.4720 nv         1 KL4      -1.053900
     24 N21         -4.7650    -2.1710     0.7010 n7         1 KL4      -0.827400
     25 H1           6.9410    -1.8750    -0.0250 ha         1 KL4       0.119000
     26 H2           2.6990    -2.5050    -0.1690 ha         1 KL4       0.121000
     27 H3           4.7680    -4.4170    -0.7470 hc         1 KL4       0.046367
     28 H4           6.0950    -4.0940     0.3690 hc         1 KL4       0.046367
     29 H5           4.4370    -4.2200     0.9630 hc         1 KL4       0.046367
     30 H6           2.0160     0.7580    -1.4210 hc         1 KL4       0.057200
     31 H7           1.3010    -0.6590    -0.6630 hc         1 KL4       0.057200
     32 H8           1.7670     0.3270     1.5930 hc         1 KL4       0.057200
     33 H9           2.4650     1.7440     0.8230 hc         1 KL4       0.057200
     34 H10          1.0330     3.5110    -0.0360 ha         1 KL4       0.133000
     35 H11         -3.2160     3.0810     0.2440 ha         1 KL4       0.129000
     36 H12         -0.6620    -0.2240     1.2120 ha         1 KL4       0.115000
     37 H13         -2.9960    -0.3750     1.6690 hc         1 KL4       0.057700
     38 H14         -4.0360     1.0340     1.5640 hc         1 KL4       0.057700
     39 H15         -4.1730     0.7660    -0.9110 hc         1 KL4       0.043700
     40 H16         -3.1180    -0.6290    -0.8340 hc         1 KL4       0.043700
     41 H17         -5.8400    -0.4090     0.5140 h1         1 KL4       0.065700
     42 H18         -6.4220    -0.7390    -1.7920 hc         1 KL4       0.047700
     43 H19         -4.9550    -1.6520    -2.1050 hc         1 KL4       0.047700
     44 H20         -7.5120    -2.6930    -0.9630 hc         1 KL4       0.046700
     45 H21         -6.1700    -3.5890    -1.6460 hc         1 KL4       0.046700
     46 H22         -6.6750    -2.8490     1.2040 h1         1 KL4       0.052200
     47 H23         -5.5960    -4.1020     0.6180 h1         1 KL4       0.052200
     48 H24          6.4880     1.7050    -0.3440 hn         1 KL4       0.468500
     49 H25          7.6030     0.4650    -0.0800 hn         1 KL4       0.468500
     50 H26         -3.9380    -2.5890     0.2850 hn         1 KL4       0.396000
@<TRIPOS>BOND
     1     1     2 ar  
     2     1    22 ar  
     3     1    23 1   
     4     2     3 ar  
     5     2    25 1   
     6     3     4 ar  
     7     3     6 1   
     8     4     5 ar  
     9     4    26 1   
    10     5     7 1   
    11     5    22 ar  
    12     6    27 1   
    13     6    28 1   
    14     6    29 1   
    15     7     8 1   
    16     7    30 1   
    17     7    31 1   
    18     8     9 1   
    19     8    32 1   
    20     8    33 1   
    21     9    10 ar  
    22     9    14 ar  
    23    10    11 ar  
    24    10    34 1   
    25    11    12 ar  
    26    11    21 1   
    27    12    13 ar  
    28    12    35 1   
    29    13    14 ar  
    30    13    15 1   
    31    14    36 1   
    32    15    16 1   
    33    15    37 1   
    34    15    38 1   
    35    16    17 1   
    36    16    39 1   
    37    16    40 1   
    38    17    18 1   
    39    17    24 1   
    40    17    41 1   
    41    18    19 1   
    42    18    42 1   
    43    18    43 1   
    44    19    20 1   
    45    19    44 1   
    46    19    45 1   
    47    20    24 1   
    48    20    46 1   
    49    20    47 1   
    50    23    48 1   
    51    23    49 1   
    52    24    50 1   
@<TRIPOS>SUBSTRUCTURE
     1 KL4         1 TEMP              0 ****  ****    0 ROOT
