@<TRIPOS>MOLECULE
KL6
   40    41     1     0     0
SMALL
No Charge or Current Charge


@<TRIPOS>ATOM
      1 N1          11.2450    -0.2550    23.1830 nh         1 KL6      -0.831400
      2 C4          13.0040    -1.4010    21.8440 c6         1 KL6      -0.087400
      3 C5          13.9640    -0.2190    22.0750 c6         1 KL6      -0.033100
      4 C6          13.2100     1.0600    22.4490 ca         1 KL6      -0.091300
      5 C7          13.8540     2.2990    22.2630 ca         1 KL6      -0.090000
      6 C8          13.2070     3.4980    22.5950 ca         1 KL6      -0.058000
      7 C10         11.2590     2.2270    23.3170 ca         1 KL6      -0.088000
      8 O3          12.0290     6.0860    23.7680 o          1 KL6      -0.544000
      9 O2           9.9520     4.7640    24.4640 o          1 KL6      -0.544000
     10 N2          10.3320     5.4320    22.1600 n8         1 KL6      -1.018100
     11 C9          11.9040     3.4690    23.1260 ca         1 KL6      -0.233500
     12 C11         11.8950     1.0070    22.9840 ca         1 KL6       0.317000
     13 C3          12.0100    -1.5200    23.0110 c6         1 KL6       0.228800
     14 C2           9.8170    -0.3820    23.5830 c3         1 KL6       0.196800
     15 C1           9.5820    -0.3560    25.1230 c3         1 KL6       0.180800
     16 N            8.1710    -0.6050    25.5340 n7         1 KL6      -0.913300
     17 S            7.0790     0.6430    25.7220 s6         1 KL6       1.230100
     18 O            7.7210     1.6290    26.5930 o          1 KL6      -0.528000
     19 O1           5.8280     0.0060    26.1320 o          1 KL6      -0.528000
     20 C            6.8990     1.3090    24.0800 c3         1 KL6      -0.387100
     21 H1          12.4510    -1.2530    20.9070 hc         1 KL6       0.057200
     22 H2          13.5710    -2.3350    21.7330 hc         1 KL6       0.057200
     23 H3          14.6680    -0.4690    22.8800 hc         1 KL6       0.056200
     24 H4          14.5690    -0.0570    21.1720 hc         1 KL6       0.056200
     25 H5          14.8630     2.3320    21.8570 ha         1 KL6       0.115000
     26 H6          13.7210     4.4450    22.4380 ha         1 KL6       0.144000
     27 H7          10.2580     2.2230    23.7340 ha         1 KL6       0.119000
     28 H8           9.3820     5.5720    22.4940 hn         1 KL6       0.475000
     29 H9          10.6680     6.3870    22.0620 hn         1 KL6       0.475000
     30 H10         11.3330    -2.3640    22.8090 h1         1 KL6       0.041200
     31 H11         12.5570    -1.7550    23.9370 h1         1 KL6       0.041200
     32 H12          9.2290     0.3990    23.0900 h1         1 KL6       0.050700
     33 H13          9.4180    -1.3300    23.1970 h1         1 KL6       0.050700
     34 H14         10.2160    -1.1490    25.5420 h1         1 KL6       0.079700
     35 H15          9.9610     0.5880    25.5380 h1         1 KL6       0.079700
     36 H16          7.7010    -1.2150    24.8670 hn         1 KL6       0.486000
     37 H17          6.0630     2.0150    24.1140 h1         1 KL6       0.099367
     38 H18          7.8250     1.8310    23.8240 h1         1 KL6       0.099367
     39 H19          6.6860     0.4840    23.3930 h1         1 KL6       0.099367
     40 S1          11.0670     5.0070    23.5530 sy         1 KL6       1.141600
@<TRIPOS>BOND
     1     1    12 1   
     2     1    13 1   
     3     1    14 1   
     4     2     3 1   
     5     2    13 1   
     6     2    21 1   
     7     2    22 1   
     8     3     4 1   
     9     3    23 1   
    10     3    24 1   
    11     4     5 ar  
    12     4    12 ar  
    13     5     6 ar  
    14     5    25 1   
    15     6    11 ar  
    16     6    26 1   
    17     7    11 ar  
    18     7    12 ar  
    19     7    27 1   
    20     8    40 2   
    21     9    40 2   
    22    10    28 1   
    23    10    29 1   
    24    10    40 1   
    25    11    40 1   
    26    13    30 1   
    27    13    31 1   
    28    14    15 1   
    29    14    32 1   
    30    14    33 1   
    31    15    16 1   
    32    15    34 1   
    33    15    35 1   
    34    16    17 1   
    35    16    36 1   
    36    17    18 2   
    37    17    19 2   
    38    17    20 1   
    39    20    37 1   
    40    20    38 1   
    41    20    39 1   
@<TRIPOS>SUBSTRUCTURE
     1 KL6         1 TEMP              0 ****  ****    0 ROOT
