@<TRIPOS>MOLECULE
KL6
   40    41     1     0     0
SMALL
abcg2


@<TRIPOS>ATOM
      1 N1          11.2030    -0.2850    22.8700 nh         1 KL6      -0.831400
      2 C4          13.1520    -1.3450    21.8210 c6         1 KL6      -0.087400
      3 C5          14.0390    -0.2100    22.3170 c6         1 KL6      -0.033100
      4 C6          13.2340     1.0340    22.5930 ca         1 KL6      -0.091300
      5 C7          13.8420     2.2800    22.5640 ca         1 KL6      -0.090000
      6 C8          13.1530     3.4560    22.8460 ca         1 KL6      -0.058000
      7 C10         11.1530     2.1200    23.1840 ca         1 KL6      -0.088000
      8 O3          11.8110     5.9060    23.6230 o          1 KL6      -0.544000
      9 O2          10.1150     4.5290    24.7990 o          1 KL6      -0.544000
     10 N2           9.7860     4.9180    22.3870 n8         1 KL6      -1.018100
     11 C9          11.8080     3.3440    23.1600 ca         1 KL6      -0.233500
     12 C11         11.8470     0.9360    22.8910 ca         1 KL6       0.317000
     13 C3          11.9750    -1.5210    22.7650 c6         1 KL6       0.228800
     14 C2           9.8320    -0.4030    23.3250 c3         1 KL6       0.196800
     15 C1           9.7030    -0.3340    24.8530 c3         1 KL6       0.180800
     16 N            8.3190    -0.4070    25.3220 n7         1 KL6      -0.913300
     17 S            7.4330     0.9070    25.7000 s6         1 KL6       1.230100
     18 O            8.3080     1.8270    26.3910 o          1 KL6      -0.528000
     19 O1           6.2500     0.4150    26.3730 o          1 KL6      -0.528000
     20 C            6.8880     1.7000    24.2050 c3         1 KL6      -0.387100
     21 H1          12.7790    -1.1210    20.8180 hc         1 KL6       0.057200
     22 H2          13.7150    -2.2780    21.7650 hc         1 KL6       0.057200
     23 H3          14.5380    -0.5230    23.2410 hc         1 KL6       0.056200
     24 H4          14.8280     0.0170    21.5980 hc         1 KL6       0.056200
     25 H5          14.8960     2.3320    22.3160 ha         1 KL6       0.115000
     26 H6          13.6440     4.4170    22.8310 ha         1 KL6       0.144000
     27 H7          10.1080     2.1010    23.4430 ha         1 KL6       0.119000
     28 H8           8.9620     5.4200    22.7040 hn         1 KL6       0.475000
     29 H9          10.1790     5.3380    21.5500 hn         1 KL6       0.475000
     30 H10         11.3020    -2.2960    22.3970 h1         1 KL6       0.041200
     31 H11         12.3360    -1.8410    23.7520 h1         1 KL6       0.041200
     32 H12          9.2160     0.3670    22.8590 h1         1 KL6       0.050700
     33 H13          9.4470    -1.3620    22.9770 h1         1 KL6       0.050700
     34 H14         10.2530    -1.1620    25.3040 h1         1 KL6       0.079700
     35 H15         10.1340     0.5880    25.2370 h1         1 KL6       0.079700
     36 H16          7.7620    -1.1820    24.9810 hn         1 KL6       0.486000
     37 H17          6.2230     2.5110    24.5030 h1         1 KL6       0.099367
     38 H18          7.7490     2.0970    23.6750 h1         1 KL6       0.099367
     39 H19          6.3540     0.9690    23.6010 h1         1 KL6       0.099367
     40 S1          10.8920     4.7880    23.6050 sy         1 KL6       1.141600
@<TRIPOS>BOND
     1     1    12 1   
     2     1    13 1   
     3     1    14 1   
     4     2     3 1   
     5     2    13 1   
     6     2    21 1   
     7     2    22 1   
     8     3     4 1   
     9     3    23 1   
    10     3    24 1   
    11     4     5 ar  
    12     4    12 ar  
    13     5     6 ar  
    14     5    25 1   
    15     6    11 ar  
    16     6    26 1   
    17     7    11 ar  
    18     7    12 ar  
    19     7    27 1   
    20     8    40 2   
    21     9    40 2   
    22    10    28 1   
    23    10    29 1   
    24    10    40 1   
    25    11    40 1   
    26    13    30 1   
    27    13    31 1   
    28    14    15 1   
    29    14    32 1   
    30    14    33 1   
    31    15    16 1   
    32    15    34 1   
    33    15    35 1   
    34    16    17 1   
    35    16    36 1   
    36    17    18 2   
    37    17    19 2   
    38    17    20 1   
    39    20    37 1   
    40    20    38 1   
    41    20    39 1   
@<TRIPOS>SUBSTRUCTURE
     1 KL6         1 TEMP              0 ****  ****    0 ROOT
