@<TRIPOS>MOLECULE
KL7
   49    50     1     0     0
SMALL
No Charge or Current Charge


@<TRIPOS>ATOM
      1 C22          6.8080    -1.0810    -1.5680 c3         1 KL7       0.149600
      2 C21          7.1600    -2.8880     0.0520 c3         1 KL7       0.149600
      3 C19          5.4720    -1.1660     0.5290 c3         1 KL7       0.165800
      4 C18          4.2750    -0.3270     0.0240 c3         1 KL7      -0.076400
      5 C17          3.4730     0.3250     1.1700 c3         1 KL7      -0.023100
      6 C16          1.0690     0.5560     0.3220 ca         1 KL7       0.196000
      7 C14          2.4580     2.5480     0.4910 ca         1 KL7      -0.063000
      8 C15          2.3040     1.1580     0.6510 ca         1 KL7      -0.131300
      9 C13          1.3890     3.3230     0.0150 ca         1 KL7      -0.167000
     10 C12          0.1660     2.7180    -0.3070 ca         1 KL7       0.196000
     11 C11         -0.0100     1.3270    -0.1630 ca         1 KL7      -0.156300
     12 C02         -5.8020     0.0570    -0.1310 ca         1 KL7       0.601900
     13 C03         -5.9830    -1.3250    -0.2180 ca         1 KL7      -0.233000
     14 C04         -4.8800    -2.1580     0.0190 ca         1 KL7       0.001700
     15 C05         -3.6600    -1.5380     0.3310 ca         1 KL7      -0.214000
     16 C06         -3.5900    -0.1330     0.3890 ca         1 KL7       0.397300
     17 C09         -1.3460     0.6660    -0.5120 c3         1 KL7      -0.017100
     18 F12         -0.8470     3.4940    -0.7570 f          1 KL7      -0.171000
     19 N01         -4.6590     0.6610     0.1550 nb         1 KL7      -0.752000
     20 N02         -6.7750     0.9440    -0.3460 nv         1 KL7      -1.056900
     21 N20          6.1890    -1.9310    -0.5230 n3         1 KL7      -0.710600
     22 H1           7.5380    -0.3880    -1.1280 h1         1 KL7       0.029867
     23 H2           7.3290    -1.6990    -2.3110 h1         1 KL7       0.029867
     24 H3           6.0520    -0.4930    -2.1040 h1         1 KL7       0.029867
     25 H4           6.6650    -3.5670     0.7600 h1         1 KL7       0.029867
     26 H5           7.6170    -3.5000    -0.7370 h1         1 KL7       0.029867
     27 H6           7.9620    -2.3600     0.5860 h1         1 KL7       0.029867
     28 H7           6.1740    -0.4990     1.0490 h1         1 KL7       0.028200
     29 H8           5.0860    -1.8690     1.2800 h1         1 KL7       0.028200
     30 H9           4.6320     0.4640    -0.6450 hc         1 KL7       0.053200
     31 H10          3.6090    -0.9720    -0.5620 hc         1 KL7       0.053200
     32 H11          3.1120    -0.4570     1.8500 hc         1 KL7       0.051200
     33 H12          4.1490     0.9510     1.7660 hc         1 KL7       0.051200
     34 H13          3.4040     3.0270     0.7360 ha         1 KL7       0.119000
     35 H14          1.5080     4.3970    -0.1050 ha         1 KL7       0.136000
     36 H15         -6.9570    -1.7390    -0.4610 ha         1 KL7       0.118000
     37 H16         -2.7720    -2.1330     0.5260 ha         1 KL7       0.122000
     38 H17         -5.2340    -4.0910     0.9330 hc         1 KL7       0.046367
     39 H18         -5.7960    -3.9760    -0.7440 hc         1 KL7       0.046367
     40 H19         -4.0680    -4.1290    -0.4010 hc         1 KL7       0.046367
     41 H20         -2.4660     1.5730     1.1050 hc         1 KL7       0.058200
     42 H21         -1.7630     0.0190     1.5120 hc         1 KL7       0.058200
     43 H22         -1.8580     1.2230    -1.3070 hc         1 KL7       0.066700
     44 H23         -1.1790    -0.3380    -0.9220 hc         1 KL7       0.066700
     45 H24         -6.4550     1.8950    -0.4840 hn         1 KL7       0.469000
     46 H25         -7.5690     0.6460    -0.9010 hn         1 KL7       0.469000
     47 F16          0.9170    -0.7810     0.4770 f          1 KL7      -0.176000
     48 C08         -2.2790     0.5650     0.7140 c3         1 KL7      -0.122700
     49 C07         -5.0010    -3.6710    -0.0530 c3         1 KL7      -0.053800
@<TRIPOS>BOND
     1     1    21 1   
     2     1    22 1   
     3     1    23 1   
     4     1    24 1   
     5     2    21 1   
     6     2    25 1   
     7     2    26 1   
     8     2    27 1   
     9     3     4 1   
    10     3    21 1   
    11     3    28 1   
    12     3    29 1   
    13     4     5 1   
    14     4    30 1   
    15     4    31 1   
    16     5     8 1   
    17     5    32 1   
    18     5    33 1   
    19     6     8 ar  
    20     6    11 ar  
    21     6    47 1   
    22     7     8 ar  
    23     7     9 ar  
    24     7    34 1   
    25     9    10 ar  
    26     9    35 1   
    27    10    11 ar  
    28    10    18 1   
    29    11    17 1   
    30    12    13 ar  
    31    12    19 ar  
    32    12    20 1   
    33    13    14 ar  
    34    13    36 1   
    35    14    15 ar  
    36    14    49 1   
    37    15    16 ar  
    38    15    37 1   
    39    16    19 ar  
    40    16    48 1   
    41    17    43 1   
    42    17    44 1   
    43    17    48 1   
    44    20    45 1   
    45    20    46 1   
    46    38    49 1   
    47    39    49 1   
    48    40    49 1   
    49    41    48 1   
    50    42    48 1   
@<TRIPOS>SUBSTRUCTURE
     1 KL7         1 TEMP              0 ****  ****    0 ROOT
