@<TRIPOS>MOLECULE
KL7
   49    50     1     0     0
SMALL
bcc


@<TRIPOS>ATOM
      1 C22          6.7620    -0.7870    -1.6690 c3         1 KL7       0.149600
      2 C21          7.1410    -2.7200    -0.3320 c3         1 KL7       0.149600
      3 C19          5.4680    -1.1590     0.3310 c3         1 KL7       0.165800
      4 C18          4.2530    -0.3310    -0.0620 c3         1 KL7      -0.076400
      5 C17          3.5060     0.1720     1.1750 c3         1 KL7      -0.023100
      6 C16          1.1210     0.5000     0.4110 ca         1 KL7       0.160900
      7 C14          2.4120     2.4280     0.8570 ca         1 KL7      -0.081000
      8 C15          2.3310     1.0400     0.8240 ca         1 KL7      -0.131300
      9 C13          1.3390     3.2300     0.4970 ca         1 KL7      -0.185000
     10 C12          0.1690     2.6200     0.0970 ca         1 KL7       0.160900
     11 C11          0.0130     1.2420     0.0290 ca         1 KL7      -0.156300
     12 C02         -5.4560     0.0220    -0.7990 ca         1 KL7       0.667200
     13 C03         -5.8760    -1.2820    -0.4810 ca         1 KL7      -0.316300
     14 C04         -5.0660    -2.0760     0.3030 ca         1 KL7       0.001700
     15 C05         -3.8510    -1.5400     0.7480 ca         1 KL7      -0.297300
     16 C06         -3.5140    -0.2490     0.3860 ca         1 KL7       0.462600
     17 C09         -1.2800     0.6010    -0.3860 c3         1 KL7      -0.017100
     18 F12         -0.8770     3.3920    -0.2440 f          1 KL7      -0.135900
     19 N01         -4.2990     0.5170    -0.3740 nb         1 KL7      -0.752000
     20 N02         -6.2560     0.8530    -1.5280 nv         1 KL7      -0.946500
     21 N20          6.1540    -1.7670    -0.7940 n3         1 KL7      -0.710600
     22 H1           7.4760    -0.1270    -1.1500 h1         1 KL7       0.029867
     23 H2           7.3030    -1.2950    -2.4690 h1         1 KL7       0.029867
     24 H3           6.0090    -0.1570    -2.1410 h1         1 KL7       0.029867
     25 H4           6.6620    -3.4870     0.2780 h1         1 KL7       0.029867
     26 H5           7.6130    -3.2140    -1.1820 h1         1 KL7       0.029867
     27 H6           7.9400    -2.2630     0.2750 h1         1 KL7       0.029867
     28 H7           6.1550    -0.5340     0.9310 h1         1 KL7       0.028200
     29 H8           5.1360    -1.9660     0.9900 h1         1 KL7       0.028200
     30 H9           4.5490     0.5330    -0.6630 hc         1 KL7       0.053200
     31 H10          3.5880    -0.9360    -0.6830 hc         1 KL7       0.053200
     32 H11          3.1860    -0.6780     1.7830 hc         1 KL7       0.051200
     33 H12          4.1940     0.7520     1.7960 hc         1 KL7       0.051200
     34 H13          3.3360     2.8930     1.1770 ha         1 KL7       0.137000
     35 H14          1.4110     4.3090     0.5310 ha         1 KL7       0.154000
     36 H15         -6.8250    -1.6510    -0.8510 ha         1 KL7       0.136000
     37 H16         -3.1830    -2.1270     1.3650 ha         1 KL7       0.140000
     38 H17         -5.7180    -3.5120     1.7500 hc         1 KL7       0.046367
     39 H18         -6.3430    -3.8020     0.1290 hc         1 KL7       0.046367
     40 H19         -4.6610    -4.1740     0.5170 hc         1 KL7       0.046367
     41 H20         -2.4080     1.3180     1.3080 hc         1 KL7       0.058200
     42 H21         -1.7180    -0.2820     1.5410 hc         1 KL7       0.058200
     43 H22         -1.7920     1.2300    -1.1140 hc         1 KL7       0.066700
     44 H23         -1.0820    -0.3490    -0.8830 hc         1 KL7       0.066700
     45 H24         -5.8040     1.6480    -1.9500 hn         1 KL7       0.413800
     46 H25         -6.9710     0.4340    -2.0990 hn         1 KL7       0.413800
     47 F16          1.0080    -0.8400     0.3760 f          1 KL7      -0.140900
     48 C08         -2.2110     0.3640     0.8130 c3         1 KL7      -0.122700
     49 C07         -5.4720    -3.4650     0.6880 c3         1 KL7      -0.053800
@<TRIPOS>BOND
     1     1    21 1   
     2     1    22 1   
     3     1    23 1   
     4     1    24 1   
     5     2    21 1   
     6     2    25 1   
     7     2    26 1   
     8     2    27 1   
     9     3     4 1   
    10     3    21 1   
    11     3    28 1   
    12     3    29 1   
    13     4     5 1   
    14     4    30 1   
    15     4    31 1   
    16     5     8 1   
    17     5    32 1   
    18     5    33 1   
    19     6     8 ar  
    20     6    11 ar  
    21     6    47 1   
    22     7     8 ar  
    23     7     9 ar  
    24     7    34 1   
    25     9    10 ar  
    26     9    35 1   
    27    10    11 ar  
    28    10    18 1   
    29    11    17 1   
    30    12    13 ar  
    31    12    19 ar  
    32    12    20 1   
    33    13    14 ar  
    34    13    36 1   
    35    14    15 ar  
    36    14    49 1   
    37    15    16 ar  
    38    15    37 1   
    39    16    19 ar  
    40    16    48 1   
    41    17    43 1   
    42    17    44 1   
    43    17    48 1   
    44    20    45 1   
    45    20    46 1   
    46    38    49 1   
    47    39    49 1   
    48    40    49 1   
    49    41    48 1   
    50    42    48 1   
@<TRIPOS>SUBSTRUCTURE
     1 KL7         1 TEMP              0 ****  ****    0 ROOT
