@<TRIPOS>MOLECULE
KL9
   57    61     1     0     0
SMALL
No Charge or Current Charge


@<TRIPOS>ATOM
      1 C4           4.0020    23.8110   -15.9290 ca         1 KL9       0.255800
      2 C14         -1.5600    25.4420    -9.1390 ca         1 KL9      -0.106000
      3 C5           5.1950    23.5520   -17.8690 ca         1 KL9       0.273900
      4 C6           4.5070    22.3230   -18.1170 ca         1 KL9       0.335300
      5 C11         -1.8980    24.5190   -10.1460 ca         1 KL9      -0.082300
      6 C7           4.7900    21.4810   -19.3480 c3         1 KL9      -0.148400
      7 C8           3.5660    24.4550   -14.6890 cc         1 KL9       0.171200
      8 C9           0.1450    23.4050   -11.1590 c3         1 KL9       0.104000
      9 C10         -1.0250    24.3820   -11.3850 c3         1 KL9      -0.057100
     10 C12         -3.0450    23.7190    -9.9890 ca         1 KL9      -0.106000
     11 C13         -3.8460    23.8430    -8.8410 ca         1 KL9      -0.106500
     12 N1           4.9520    24.3200   -16.7670 nb         1 KL9      -0.596000
     13 N2           3.5600    21.8350   -17.2670 nb         1 KL9      -0.618000
     14 C3           3.3320    22.6110   -16.1780 ca         1 KL9       0.381300
     15 N3           4.0930    25.6430   -14.2490 nv         1 KL9      -0.923000
     16 C15         -2.3600    25.5670    -7.9910 ca         1 KL9      -0.106500
     17 C16         -3.5110    24.7690    -7.8310 ca         1 KL9      -0.073300
     18 C17         -4.3790    24.9130    -6.5700 c6         1 KL9      -0.013400
     19 C18         -5.8240    25.3850    -6.8930 c6         1 KL9      -0.057400
     20 C19         -6.7620    25.2930    -5.6500 c5         1 KL9       0.145500
     21 C2           2.5740    23.7200   -14.0510 cd         1 KL9      -0.275600
     22 C20         -6.2420    26.0120    -4.3700 c5         1 KL9      -0.111900
     23 C21         -5.3800    24.9170    -3.6510 c5         1 KL9      -0.111900
     24 C22         -5.4920    23.6800    -4.5910 c5         1 KL9       0.145500
     25 C23         -4.4250    23.6070    -5.7260 c6         1 KL9      -0.057400
     26 N4           0.9760    23.2440   -12.3540 ns         1 KL9      -0.499900
     27 N5          -6.8200    23.8840    -5.2090 n7         1 KL9      -0.825400
     28 O1           2.1750    25.1730   -12.1740 o          1 KL9      -0.642100
     29 S1           2.1470    22.2020   -14.9220 ss         1 KL9      -0.122900
     30 H1           5.9480    23.9220   -18.5630 h4         1 KL9       0.032100
     31 H2           3.8870    21.3680   -19.9600 hc         1 KL9       0.059033
     32 H3           5.5640    21.9370   -19.9770 hc         1 KL9       0.059033
     33 H4           5.1360    20.4800   -19.0670 hc         1 KL9       0.059033
     34 H8          -0.2530    22.4220   -10.8750 h1         1 KL9       0.060700
     35 H9           0.7710    23.7660   -10.3320 h1         1 KL9       0.060700
     36 H10         -0.6290    25.3620   -11.6740 hc         1 KL9       0.053700
     37 H11         -1.6250    24.0310   -12.2340 hc         1 KL9       0.053700
     38 H12         -3.3170    22.9980   -10.7570 ha         1 KL9       0.112500
     39 H13         -4.7280    23.2160    -8.7390 ha         1 KL9       0.113000
     40 H5           3.6960    26.0940   -13.4240 hn         1 KL9       0.506500
     41 H6           4.7390    26.1730   -14.8340 hn         1 KL9       0.506500
     42 H15         -2.0810    26.2870    -7.2240 ha         1 KL9       0.113000
     43 H16         -3.9200    25.6870    -5.9400 hc         1 KL9       0.046700
     44 H18         -5.8000    26.4190    -7.2630 hc         1 KL9       0.049200
     45 H17         -6.2530    24.7800    -7.7030 hc         1 KL9       0.049200
     46 H19         -7.7560    25.6650    -5.9420 h1         1 KL9       0.062700
     47 H21         -5.6660    26.9140    -4.6060 hc         1 KL9       0.046700
     48 H20         -7.0760    26.3270    -3.7320 hc         1 KL9       0.046700
     49 H22         -4.3400    25.2300    -3.5010 hc         1 KL9       0.046700
     50 H23         -5.7890    24.6920    -2.6600 hc         1 KL9       0.046700
     51 H24         -5.4520    22.7400    -4.0220 h1         1 KL9       0.062700
     52 H25         -4.6510    22.7450    -6.3680 hc         1 KL9       0.049200
     53 H26         -3.4350    23.4150    -5.2920 hc         1 KL9       0.049200
     54 H7           0.8470    22.4240   -12.9330 hn         1 KL9       0.311500
     55 H28         -7.5310    23.8060    -4.4730 hn         1 KL9       0.399000
     56 C1           1.9200    24.1440   -12.7850 c          1 KL9       0.659300
     57 H14         -0.6740    26.0650    -9.2460 ha         1 KL9       0.112500
@<TRIPOS>BOND
     1     1     7 1   
     2     1    12 ar  
     3     1    14 ar  
     4     2     5 ar  
     5     2    16 ar  
     6     2    57 1   
     7     3     4 ar  
     8     3    12 ar  
     9     3    30 1   
    10     4     6 1   
    11     4    13 ar  
    12     5     9 1   
    13     5    10 ar  
    14     6    31 1   
    15     6    32 1   
    16     6    33 1   
    17     7    15 1   
    18     7    21 2   
    19     8     9 1   
    20     8    26 1   
    21     8    34 1   
    22     8    35 1   
    23     9    36 1   
    24     9    37 1   
    25    10    11 ar  
    26    10    38 1   
    27    11    17 ar  
    28    11    39 1   
    29    13    14 ar  
    30    14    29 1   
    31    15    40 1   
    32    15    41 1   
    33    16    17 ar  
    34    16    42 1   
    35    17    18 1   
    36    18    19 1   
    37    18    25 1   
    38    18    43 1   
    39    19    20 1   
    40    19    44 1   
    41    19    45 1   
    42    20    22 1   
    43    20    27 1   
    44    20    46 1   
    45    21    29 1   
    46    21    56 1   
    47    22    23 1   
    48    22    47 1   
    49    22    48 1   
    50    23    24 1   
    51    23    49 1   
    52    23    50 1   
    53    24    25 1   
    54    24    27 1   
    55    24    51 1   
    56    25    52 1   
    57    25    53 1   
    58    26    54 1   
    59    26    56 1   
    60    27    55 1   
    61    28    56 2   
@<TRIPOS>SUBSTRUCTURE
     1 KL9         1 TEMP              0 ****  ****    0 ROOT
