@<TRIPOS>MOLECULE
KL9
   57    61     1     0     0
SMALL
abcg2


@<TRIPOS>ATOM
      1 C4           4.0180    23.7400   -15.7210 ca         1 KL9       0.255800
      2 C14         -1.8010    25.4810    -9.3960 ca         1 KL9      -0.106000
      3 C5           5.2810    23.6500   -17.5730 ca         1 KL9       0.273900
      4 C6           4.4510    22.6420   -18.1110 ca         1 KL9       0.335300
      5 C11         -2.0460    24.4120   -10.2500 ca         1 KL9      -0.082300
      6 C7           4.7450    22.0640   -19.4570 c3         1 KL9      -0.148400
      7 C8           3.5960    24.1960   -14.4180 cc         1 KL9       0.171200
      8 C9          -0.1020    23.1960   -11.2720 c3         1 KL9       0.104000
      9 C10         -1.2300    24.2100   -11.4950 c3         1 KL9      -0.057100
     10 C12         -3.0520    23.5120    -9.8980 ca         1 KL9      -0.106000
     11 C13         -3.7910    23.6850    -8.7380 ca         1 KL9      -0.106500
     12 N1           5.0700    24.1950   -16.3960 nb         1 KL9      -0.596000
     13 N2           3.4060    22.1900   -17.4350 nb         1 KL9      -0.618000
     14 C3           3.2010    22.7410   -16.2500 ca         1 KL9       0.381300
     15 N3           4.2550    25.1880   -13.7930 nv         1 KL9      -0.923000
     16 C15         -2.5460    25.6550    -8.2360 ca         1 KL9      -0.106500
     17 C16         -3.5550    24.7640    -7.8860 ca         1 KL9      -0.073300
     18 C17         -4.3720    24.9680    -6.6350 c6         1 KL9      -0.013400
     19 C18         -5.8620    25.1810    -6.9450 c6         1 KL9      -0.057400
     20 C19         -6.7060    25.1470    -5.6720 c5         1 KL9       0.145500
     21 C2           2.4730    23.5140   -14.0030 cd         1 KL9      -0.275600
     22 C20         -6.1910    26.1420    -4.6080 c5         1 KL9      -0.111900
     23 C21         -5.1650    25.3160    -3.8040 c5         1 KL9      -0.111900
     24 C22         -5.2000    23.9290    -4.4840 c5         1 KL9       0.145500
     25 C23         -4.1890    23.8250    -5.6240 c6         1 KL9      -0.057400
     26 N4           0.7080    22.9920   -12.4510 ns         1 KL9      -0.499900
     27 N5          -6.5380    23.8240    -5.0690 n7         1 KL9      -0.825400
     28 O1           2.2230    24.5870   -11.9400 o          1 KL9      -0.642100
     29 S1           1.9130    22.3250   -15.1820 ss         1 KL9      -0.122900
     30 H1           6.1320    24.0050   -18.1430 h4         1 KL9       0.032100
     31 H2           3.9630    21.3720   -19.7590 hc         1 KL9       0.059033
     32 H3           4.8270    22.8500   -20.2090 hc         1 KL9       0.059033
     33 H4           5.6960    21.5290   -19.4490 hc         1 KL9       0.059033
     34 H8          -0.5230    22.2310   -10.9830 h1         1 KL9       0.060700
     35 H9           0.5370    23.5230   -10.4530 h1         1 KL9       0.060700
     36 H10         -0.7960    25.1600   -11.8160 hc         1 KL9       0.053700
     37 H11         -1.8660    23.8560   -12.3100 hc         1 KL9       0.053700
     38 H12         -3.2660    22.6700   -10.5470 ha         1 KL9       0.112500
     39 H13         -4.5700    22.9690    -8.5020 ha         1 KL9       0.113000
     40 H5           4.0470    25.3690   -12.8260 hn         1 KL9       0.506500
     41 H6           5.1700    25.4340   -14.1310 hn         1 KL9       0.506500
     42 H15         -2.3400    26.5040    -7.5940 ha         1 KL9       0.113000
     43 H16         -4.0020    25.8840    -6.1630 hc         1 KL9       0.046700
     44 H18         -5.9950    26.1340    -7.4640 hc         1 KL9       0.049200
     45 H17         -6.2260    24.3980    -7.6170 hc         1 KL9       0.049200
     46 H19         -7.7550    25.3170    -5.9240 h1         1 KL9       0.062700
     47 H21         -5.7590    27.0420    -5.0500 hc         1 KL9       0.046700
     48 H20         -7.0150    26.4680    -3.9710 hc         1 KL9       0.046700
     49 H22         -4.1670    25.7590    -3.8090 hc         1 KL9       0.046700
     50 H23         -5.4680    25.2280    -2.7590 hc         1 KL9       0.046700
     51 H24         -5.0340    23.1160    -3.7740 h1         1 KL9       0.062700
     52 H25         -4.3220    22.8570    -6.1160 hc         1 KL9       0.049200
     53 H26         -3.1700    23.8470    -5.2310 hc         1 KL9       0.049200
     54 H7           0.3330    22.3650   -13.1450 hn         1 KL9       0.311500
     55 H28         -7.2150    23.7170    -4.3200 hn         1 KL9       0.399000
     56 C1           1.7950    23.7430   -12.7290 c          1 KL9       0.659300
     57 H14         -1.0240    26.1970    -9.6430 ha         1 KL9       0.112500
@<TRIPOS>BOND
     1     1     7 1   
     2     1    12 ar  
     3     1    14 ar  
     4     2     5 ar  
     5     2    16 ar  
     6     2    57 1   
     7     3     4 ar  
     8     3    12 ar  
     9     3    30 1   
    10     4     6 1   
    11     4    13 ar  
    12     5     9 1   
    13     5    10 ar  
    14     6    31 1   
    15     6    32 1   
    16     6    33 1   
    17     7    15 1   
    18     7    21 2   
    19     8     9 1   
    20     8    26 1   
    21     8    34 1   
    22     8    35 1   
    23     9    36 1   
    24     9    37 1   
    25    10    11 ar  
    26    10    38 1   
    27    11    17 ar  
    28    11    39 1   
    29    13    14 ar  
    30    14    29 1   
    31    15    40 1   
    32    15    41 1   
    33    16    17 ar  
    34    16    42 1   
    35    17    18 1   
    36    18    19 1   
    37    18    25 1   
    38    18    43 1   
    39    19    20 1   
    40    19    44 1   
    41    19    45 1   
    42    20    22 1   
    43    20    27 1   
    44    20    46 1   
    45    21    29 1   
    46    21    56 1   
    47    22    23 1   
    48    22    47 1   
    49    22    48 1   
    50    23    24 1   
    51    23    49 1   
    52    23    50 1   
    53    24    25 1   
    54    24    27 1   
    55    24    51 1   
    56    25    52 1   
    57    25    53 1   
    58    26    54 1   
    59    26    56 1   
    60    27    55 1   
    61    28    56 2   
@<TRIPOS>SUBSTRUCTURE
     1 KL9         1 TEMP              0 ****  ****    0 ROOT
