@<TRIPOS>MOLECULE
KLA
   50    52     1     0     0
SMALL
abcg2


@<TRIPOS>ATOM
      1 C02         -6.1520    -0.1930     0.2510 ca         1 KLA       0.598900
      2 C03         -6.3990    -1.5580     0.0250 ca         1 KLA      -0.230000
      3 C04         -5.3330    -2.4310    -0.0290 ca         1 KLA       0.000700
      4 C05         -4.0440    -1.9090     0.1430 ca         1 KLA      -0.215000
      5 C06         -3.8930    -0.5520     0.3570 ca         1 KLA       0.396300
      6 C07         -5.5320    -3.8960    -0.2700 c3         1 KLA      -0.053800
      7 C08         -2.5310     0.0640     0.5080 c3         1 KLA      -0.123700
      8 C09         -2.1800     0.9690    -0.6820 c3         1 KLA      -0.030100
      9 C11         -0.8200     1.5850    -0.5220 ca         1 KLA      -0.051300
     10 C12         -0.6780     2.8220     0.1010 ca         1 KLA      -0.150000
     11 C13          0.5900     3.3400     0.2700 ca         1 KLA       0.172000
     12 C14          1.7270     2.6860    -0.1610 ca         1 KLA      -0.149000
     13 C15          1.5920     1.4500    -0.7890 ca         1 KLA      -0.051300
     14 C16          0.3190     0.9150    -0.9590 ca         1 KLA      -0.128000
     15 C17          2.8070     0.6820    -1.2280 c3         1 KLA      -0.032100
     16 C18          3.2580    -0.3180    -0.1640 c3         1 KLA      -0.064400
     17 C22          4.4200    -1.1890    -0.6140 c5         1 KLA       0.170500
     18 C23          4.8970    -2.1730     0.4770 c5         1 KLA      -0.114400
     19 C24          6.4010    -1.9600     0.5920 c5         1 KLA       0.192300
     20 C25          6.7540    -1.2710    -0.7070 c5         1 KLA       0.124800
     21 F13          0.7230     4.5350     0.8730 f          1 KLA      -0.182000
     22 F24          6.6840    -1.1090     1.6670 f          1 KLA      -0.259000
     23 N01         -4.9270     0.2910     0.4130 nb         1 KLA      -0.752000
     24 N02         -7.1810     0.7070     0.2680 nv         1 KLA      -1.052900
     25 N21          5.6120    -0.3990    -0.9170 n7         1 KLA      -0.856400
     26 H1          -7.4160    -1.9100    -0.0960 ha         1 KLA       0.119000
     27 H2          -3.1780    -2.5580     0.1110 ha         1 KLA       0.121000
     28 H3          -5.0630    -4.1970    -1.2080 hc         1 KLA       0.046700
     29 H4          -5.0690    -4.4890     0.5200 hc         1 KLA       0.046700
     30 H5          -6.5870    -4.1620    -0.3200 hc         1 KLA       0.046700
     31 H6          -2.5000     0.6540     1.4270 hc         1 KLA       0.055700
     32 H7          -1.7750    -0.7190     0.6020 hc         1 KLA       0.055700
     33 H8          -2.2120     0.3760    -1.5990 hc         1 KLA       0.059700
     34 H9          -2.9400     1.7460    -0.7770 hc         1 KLA       0.059700
     35 H10         -1.5460     3.3720     0.4470 ha         1 KLA       0.134000
     36 H11          2.7040     3.1310    -0.0130 ha         1 KLA       0.134000
     37 H12          0.2100    -0.0450    -1.4540 ha         1 KLA       0.113000
     38 H13          2.5860     0.1490    -2.1570 hc         1 KLA       0.049700
     39 H14          3.6210     1.3790    -1.4440 hc         1 KLA       0.049700
     40 H15          3.5500     0.2170     0.7460 hc         1 KLA       0.053700
     41 H16          2.4180    -0.9650     0.1040 hc         1 KLA       0.053700
     42 H17          4.0940    -1.7690    -1.4900 h1         1 KLA       0.020700
     43 H18          4.4120    -2.0030     1.4400 hc         1 KLA       0.060700
     44 H19          4.6850    -3.2020     0.1880 hc         1 KLA       0.060700
     45 H20          6.9640    -2.8790     0.7590 h1         1 KLA       0.057700
     46 H21          7.6900    -0.7110    -0.6500 h1         1 KLA       0.047200
     47 H22          6.8760    -2.0410    -1.4840 h1         1 KLA       0.047200
     48 H23         -6.9860     1.5900     0.7110 hn         1 KLA       0.467000
     49 H24         -8.1030     0.3520     0.4610 hn         1 KLA       0.467000
     50 H25          5.5900    -0.0400    -1.8620 hn         1 KLA       0.416000
@<TRIPOS>BOND
     1     1     2 ar  
     2     1    23 ar  
     3     1    24 1   
     4     2     3 ar  
     5     2    26 1   
     6     3     4 ar  
     7     3     6 1   
     8     4     5 ar  
     9     4    27 1   
    10     5     7 1   
    11     5    23 ar  
    12     6    28 1   
    13     6    29 1   
    14     6    30 1   
    15     7     8 1   
    16     7    31 1   
    17     7    32 1   
    18     8     9 1   
    19     8    33 1   
    20     8    34 1   
    21     9    10 ar  
    22     9    14 ar  
    23    10    11 ar  
    24    10    35 1   
    25    11    12 ar  
    26    11    21 1   
    27    12    13 ar  
    28    12    36 1   
    29    13    14 ar  
    30    13    15 1   
    31    14    37 1   
    32    15    16 1   
    33    15    38 1   
    34    15    39 1   
    35    16    17 1   
    36    16    40 1   
    37    16    41 1   
    38    17    18 1   
    39    17    25 1   
    40    17    42 1   
    41    18    19 1   
    42    18    43 1   
    43    18    44 1   
    44    19    20 1   
    45    19    22 1   
    46    19    45 1   
    47    20    25 1   
    48    20    46 1   
    49    20    47 1   
    50    24    48 1   
    51    24    49 1   
    52    25    50 1   
@<TRIPOS>SUBSTRUCTURE
     1 KLA         1 TEMP              0 ****  ****    0 ROOT
