@<TRIPOS>MOLECULE
KLA
   50    52     1     0     0
SMALL
No Charge or Current Charge


@<TRIPOS>ATOM
      1 C02         -6.2500    -0.3860     0.7990 ca         1 KLA       0.598900
      2 C03         -6.4930    -1.6430     0.2410 ca         1 KLA      -0.230000
      3 C04         -5.4090    -2.3590    -0.2890 ca         1 KLA       0.000700
      4 C05         -4.1420    -1.7580    -0.2130 ca         1 KLA      -0.215000
      5 C06         -4.0110    -0.4860     0.3760 ca         1 KLA       0.396300
      6 C07         -5.5960    -3.7320    -0.9120 c3         1 KLA      -0.053800
      7 C08         -2.6520     0.1920     0.4640 c3         1 KLA      -0.123700
      8 C09         -2.2490     0.8810    -0.8570 c3         1 KLA      -0.030100
      9 C11         -0.8760     1.5320    -0.7670 ca         1 KLA      -0.051300
     10 C12         -0.7530     2.8820    -0.3890 ca         1 KLA      -0.150000
     11 C13          0.5170     3.4720    -0.2990 ca         1 KLA       0.172000
     12 C14          1.6700     2.7260    -0.5820 ca         1 KLA      -0.149000
     13 C15          1.5600     1.3750    -0.9600 ca         1 KLA      -0.051300
     14 C16          0.2840     0.7840    -1.0480 ca         1 KLA      -0.128000
     15 C17          2.8080     0.5550    -1.2590 c3         1 KLA      -0.032100
     16 C18          3.3430    -0.1640     0.0000 c3         1 KLA      -0.064400
     17 C22          4.5730    -1.0680    -0.2490 c5         1 KLA       0.170500
     18 C23          5.0730    -1.8160     1.0080 c5         1 KLA      -0.114400
     19 C24          6.4040    -2.3990     0.4720 c5         1 KLA       0.192300
     20 C25          6.9160    -1.2520    -0.4620 c5         1 KLA       0.124800
     21 F13          0.6300     4.7680     0.0650 f          1 KLA      -0.182000
     22 F24          7.2960    -2.6570     1.5170 f          1 KLA      -0.259000
     23 N01         -5.0640     0.1970     0.8800 nb         1 KLA      -0.752000
     24 N02         -7.2010     0.3790     1.3370 nv         1 KLA      -1.052900
     25 N21          5.7760    -0.3030    -0.6300 n7         1 KLA      -0.856400
     26 H1          -7.4990    -2.0510     0.2170 ha         1 KLA       0.119000
     27 H2          -3.2660    -2.2660    -0.6060 ha         1 KLA       0.121000
     28 H3          -4.8780    -3.9010    -1.7240 hc         1 KLA       0.046700
     29 H4          -5.4520    -4.5220    -0.1660 hc         1 KLA       0.046700
     30 H5          -6.6020    -3.8460    -1.3330 hc         1 KLA       0.046700
     31 H6          -2.6450     0.9340     1.2720 hc         1 KLA       0.055700
     32 H7          -1.8900    -0.5510     0.7270 hc         1 KLA       0.055700
     33 H8          -2.2610     0.1420    -1.6680 hc         1 KLA       0.059700
     34 H9          -3.0080     1.6300    -1.1180 hc         1 KLA       0.059700
     35 H10         -1.6360     3.4740    -0.1630 ha         1 KLA       0.134000
     36 H11          2.6470     3.1970    -0.5040 ha         1 KLA       0.134000
     37 H12          0.1930    -0.2620    -1.3330 ha         1 KLA       0.113000
     38 H13          2.5900    -0.1910    -2.0330 hc         1 KLA       0.049700
     39 H14          3.5910     1.2030    -1.6700 hc         1 KLA       0.049700
     40 H15          3.5830     0.5880     0.7620 hc         1 KLA       0.053700
     41 H16          2.5330    -0.7740     0.4180 hc         1 KLA       0.053700
     42 H17          4.3190    -1.7890    -1.0390 h1         1 KLA       0.020700
     43 H18          5.2380    -1.1310     1.8490 hc         1 KLA       0.060700
     44 H19          4.3800    -2.5960     1.3410 hc         1 KLA       0.060700
     45 H20          6.2420    -3.3270    -0.0910 h1         1 KLA       0.057700
     46 H21          7.7880    -0.7360    -0.0360 h1         1 KLA       0.047200
     47 H22          7.2200    -1.6690    -1.4320 h1         1 KLA       0.047200
     48 H23         -6.8580     1.1410     1.9080 hn         1 KLA       0.467000
     49 H24         -8.0520    -0.0760     1.6490 hn         1 KLA       0.467000
     50 H25          5.7100     0.0200    -1.6040 hn         1 KLA       0.416000
@<TRIPOS>BOND
     1     1     2 ar  
     2     1    23 ar  
     3     1    24 1   
     4     2     3 ar  
     5     2    26 1   
     6     3     4 ar  
     7     3     6 1   
     8     4     5 ar  
     9     4    27 1   
    10     5     7 1   
    11     5    23 ar  
    12     6    28 1   
    13     6    29 1   
    14     6    30 1   
    15     7     8 1   
    16     7    31 1   
    17     7    32 1   
    18     8     9 1   
    19     8    33 1   
    20     8    34 1   
    21     9    10 ar  
    22     9    14 ar  
    23    10    11 ar  
    24    10    35 1   
    25    11    12 ar  
    26    11    21 1   
    27    12    13 ar  
    28    12    36 1   
    29    13    14 ar  
    30    13    15 1   
    31    14    37 1   
    32    15    16 1   
    33    15    38 1   
    34    15    39 1   
    35    16    17 1   
    36    16    40 1   
    37    16    41 1   
    38    17    18 1   
    39    17    25 1   
    40    17    42 1   
    41    18    19 1   
    42    18    43 1   
    43    18    44 1   
    44    19    20 1   
    45    19    22 1   
    46    19    45 1   
    47    20    25 1   
    48    20    46 1   
    49    20    47 1   
    50    24    48 1   
    51    24    49 1   
    52    25    50 1   
@<TRIPOS>SUBSTRUCTURE
     1 KLA         1 TEMP              0 ****  ****    0 ROOT
