@<TRIPOS>MOLECULE
KLB
   31    33     1     0     0
SMALL
abcg2


@<TRIPOS>ATOM
      1 C12        -16.2210   -21.8290    -3.1540 ca         1 KLB      -0.105000
      2 C13        -15.7200   -20.7900    -3.9270 ca         1 KLB      -0.111000
      3 C14        -16.5720   -20.0430    -4.7280 ca         1 KLB      -0.095500
      4 C11        -17.5800   -22.1130    -3.1820 ca         1 KLB      -0.111000
      5 C10        -18.4320   -21.3650    -3.9840 ca         1 KLB      -0.095500
      6 C15        -19.5500   -21.2420    -7.3490 cc         1 KLB      -0.144000
      7 C17        -19.5740   -22.7120    -8.9820 cc         1 KLB       0.399400
      8 C19        -19.6540   -22.5240    -6.8640 cd         1 KLB       0.269900
      9 S01        -20.4050   -18.6430    -7.4500 ss         1 KLB       0.306000
     10 C02        -19.5210   -19.9370    -6.7210 cc         1 KLB      -0.135000
     11 C03        -18.8270   -19.5080    -5.6130 cd         1 KLB      -0.048000
     12 C04        -19.0130   -18.1180    -5.3800 cd         1 KLB      -0.101000
     13 C05        -19.8360   -17.5170    -6.2870 cc         1 KLB      -0.287900
     14 C06        -20.2780   -16.1190    -6.3930 ce         1 KLB       0.694800
     15 N07        -19.8940   -15.3020    -5.3720 nv         1 KLB      -1.065200
     16 N08        -20.9320   -15.7910    -7.4410 n2         1 KLB      -0.845100
     17 C09        -17.9360   -20.3290    -4.7720 ca         1 KLB      -0.020000
     18 N16        -19.5100   -21.3960    -8.7120 na         1 KLB      -0.298500
     19 N18        -19.6650   -23.4230    -7.8860 nd         1 KLB      -0.676000
     20 H1         -15.5570   -22.4100    -2.5270 ha         1 KLB       0.113000
     21 H2         -14.6620   -20.5590    -3.9070 ha         1 KLB       0.113500
     22 H3         -16.1740   -19.2350    -5.3300 ha         1 KLB       0.115500
     23 H4         -17.9810   -22.9130    -2.5750 ha         1 KLB       0.113500
     24 H5         -19.4940   -21.5750    -3.9790 ha         1 KLB       0.115500
     25 H6         -19.5480   -23.0950    -9.9900 h5         1 KLB       0.056100
     26 H7         -19.7460   -22.8340    -5.8360 h4         1 KLB       0.042100
     27 H8         -18.5310   -17.6010    -4.5610 ha         1 KLB       0.137000
     28 H9         -19.7300   -15.7060    -4.4650 hn         1 KLB       0.463500
     29 H10        -20.3210   -14.3900    -5.3300 hn         1 KLB       0.463500
     30 H11        -21.2170   -14.8160    -7.4150 hn         1 KLB       0.380400
     31 H12        -19.3860   -20.6630    -9.3940 hn         1 KLB       0.356000
@<TRIPOS>BOND
     1     1     2 ar  
     2     1     4 ar  
     3     1    20 1   
     4     2     3 ar  
     5     2    21 1   
     6     3    17 ar  
     7     3    22 1   
     8     4     5 ar  
     9     4    23 1   
    10     5    17 ar  
    11     5    24 1   
    12     6     8 2   
    13     6    10 1   
    14     6    18 1   
    15     7    18 1   
    16     7    19 2   
    17     7    25 1   
    18     8    19 1   
    19     8    26 1   
    20     9    10 1   
    21     9    13 1   
    22    10    11 2   
    23    11    12 1   
    24    11    17 1   
    25    12    13 2   
    26    12    27 1   
    27    13    14 1   
    28    14    15 1   
    29    14    16 2   
    30    15    28 1   
    31    15    29 1   
    32    16    30 1   
    33    18    31 1   
@<TRIPOS>SUBSTRUCTURE
     1 KLB         1 TEMP              0 ****  ****    0 ROOT
