@<TRIPOS>MOLECULE
KLB
   31    33     1     0     0
SMALL
No Charge or Current Charge


@<TRIPOS>ATOM
      1 C12        -16.5280   -21.8880    -2.9160 ca         1 KLB      -0.105000
      2 C13        -16.0430   -20.6310    -3.3110 ca         1 KLB      -0.111000
      3 C14        -16.7570   -19.8630    -4.2480 ca         1 KLB      -0.095500
      4 C11        -17.7340   -22.3700    -3.4500 ca         1 KLB      -0.111000
      5 C10        -18.4450   -21.6010    -4.3870 ca         1 KLB      -0.095500
      6 C15        -19.4910   -21.2320    -7.4540 cc         1 KLB      -0.144000
      7 C17        -19.9810   -22.8900    -8.8410 cc         1 KLB       0.399400
      8 C19        -18.5690   -22.2460    -7.3270 cd         1 KLB       0.269900
      9 S01        -20.5440   -18.6310    -7.4230 ss         1 KLB       0.306000
     10 C02        -19.5290   -19.9380    -6.8080 cc         1 KLB      -0.135000
     11 C03        -18.7150   -19.5110    -5.7690 cd         1 KLB      -0.048000
     12 C04        -18.8550   -18.1050    -5.5520 cd         1 KLB      -0.101000
     13 C05        -19.7530   -17.4650    -6.3770 cc         1 KLB      -0.287900
     14 C06        -20.1130   -16.0620    -6.4470 ce         1 KLB       0.694800
     15 N07        -19.6610   -15.2220    -5.5020 nv         1 KLB      -1.065200
     16 N08        -20.7490   -15.5740    -7.4250 n2         1 KLB      -0.845100
     17 C09        -17.9520   -20.3500    -4.8200 ca         1 KLB      -0.020000
     18 N16        -20.3620   -21.6310    -8.4420 na         1 KLB      -0.298500
     19 N18        -18.8930   -23.2790    -8.1890 nd         1 KLB      -0.676000
     20 H1         -15.9770   -22.4820    -2.1890 ha         1 KLB       0.113000
     21 H2         -15.1150   -20.2510    -2.8910 ha         1 KLB       0.113500
     22 H3         -16.3630   -18.8950    -4.5470 ha         1 KLB       0.115500
     23 H4         -18.1230   -23.3340    -3.1300 ha         1 KLB       0.113500
     24 H5         -19.3970   -21.9710    -4.7610 ha         1 KLB       0.115500
     25 H6         -20.5150   -23.4480    -9.6010 h5         1 KLB       0.056100
     26 H7         -17.6820   -22.2900    -6.7090 h4         1 KLB       0.042100
     27 H8         -18.3090   -17.5840    -4.7720 ha         1 KLB       0.137000
     28 H9         -19.3220   -15.6800    -4.6650 hn         1 KLB       0.463500
     29 H10        -20.2220   -14.3940    -5.3390 hn         1 KLB       0.463500
     30 H11        -20.6140   -14.5580    -7.4050 hn         1 KLB       0.380400
     31 H12        -21.1550   -21.1210    -8.8090 hn         1 KLB       0.356000
@<TRIPOS>BOND
     1     1     2 ar  
     2     1     4 ar  
     3     1    20 1   
     4     2     3 ar  
     5     2    21 1   
     6     3    17 ar  
     7     3    22 1   
     8     4     5 ar  
     9     4    23 1   
    10     5    17 ar  
    11     5    24 1   
    12     6     8 2   
    13     6    10 1   
    14     6    18 1   
    15     7    18 1   
    16     7    19 2   
    17     7    25 1   
    18     8    19 1   
    19     8    26 1   
    20     9    10 1   
    21     9    13 1   
    22    10    11 2   
    23    11    12 1   
    24    11    17 1   
    25    12    13 2   
    26    12    27 1   
    27    13    14 1   
    28    14    15 1   
    29    14    16 2   
    30    15    28 1   
    31    15    29 1   
    32    16    30 1   
    33    18    31 1   
@<TRIPOS>SUBSTRUCTURE
     1 KLB         1 TEMP              0 ****  ****    0 ROOT
