@<TRIPOS>MOLECULE
KLC
   76    76     1     0     0
SMALL
No Charge or Current Charge


@<TRIPOS>ATOM
      1 C4          -2.7990    48.5130    45.2900 c3         1 KLC      -0.098400
      2 C14          1.2650    52.1280    48.2150 c3         1 KLC      -0.103400
      3 C5          -1.3030    48.7680    45.6490 c3         1 KLC       0.137300
      4 C6           0.8500    50.1070    45.1040 c          1 KLC       0.570100
      5 C11         -2.6220    53.0290    47.8170 c3         1 KLC       0.185300
      6 C9          -3.9570    50.8830    47.1230 c3         1 KLC       0.182300
      7 C10         -3.9840    52.2300    47.9600 c3         1 KLC      -0.072000
      8 C12         -1.3370    52.2430    48.2020 c3         1 KLC      -0.103400
      9 C13         -0.0000    53.0190    48.0330 c3         1 KLC       0.179300
     10 C3          -3.6130    49.7290    44.7660 c3         1 KLC      -0.066400
     11 C1          -0.4800    49.4990    44.5430 c3         1 KLC       0.130300
     12 C15          1.7850    51.3340    46.9810 c3         1 KLC       0.230500
     13 C2          -3.5690    51.0290    45.6200 c3         1 KLC      -0.077400
     14 C23         -4.2540    51.8760    49.4600 c3         1 KLC      -0.083600
     15 C24         -5.1470    53.1550    47.4690 c3         1 KLC      -0.083600
     16 C25          2.8760    50.3330    47.3910 c2         1 KLC      -0.138400
     17 C26          4.1950    50.6100    47.3720 c2         1 KLC      -0.200200
     18 C27          2.3560    48.9880    47.8890 c3         1 KLC      -0.049900
     19 C28          4.8630    51.9200    46.9690 c3         1 KLC      -0.029500
     20 C29          5.3750    51.8210    45.5090 c3         1 KLC       0.162600
     21 C31          5.9820    52.3060    47.9740 c3         1 KLC      -0.069400
     22 C32          5.4780    52.5010    49.4200 c3         1 KLC      -0.089100
     23 O16         -2.6610    54.2370    48.5920 oh         1 KLC      -0.667000
     24 O17         -5.2280    50.2200    47.2020 oh         1 KLC      -0.658000
     25 O18         -0.2550    48.5600    43.4550 oh         1 KLC      -0.688000
     26 O19         -0.6500    47.4900    45.8530 os         1 KLC      -0.473000
     27 O20          0.0090    53.6470    46.7330 os         1 KLC      -0.459000
     28 O30          5.8290    53.0980    45.0370 oh         1 KLC      -0.667000
     29 O7           0.6840    50.6520    46.3560 os         1 KLC      -0.453100
     30 O8           1.9110    50.1150    44.4890 o          1 KLC      -0.470000
     31 H1          -3.3140    48.1270    46.1770 hc         1 KLC       0.051200
     32 H2          -2.8530    47.7170    44.5360 hc         1 KLC       0.051200
     33 H3           1.0760    51.4290    49.0370 hc         1 KLC       0.056200
     34 H4           2.0830    52.7670    48.5670 hc         1 KLC       0.056200
     35 H5          -1.2860    49.3570    46.5730 h1         1 KLC       0.055700
     36 H6          -2.5270    53.3080    46.7590 h1         1 KLC       0.044700
     37 H7          -3.2090    50.2260    47.5840 h1         1 KLC       0.020700
     38 H8          -1.4070    51.9240    49.2490 hc         1 KLC       0.059700
     39 H9          -1.2920    51.3280    47.6140 hc         1 KLC       0.059700
     40 H10          0.0200    53.7900    48.8150 h1         1 KLC       0.032700
     41 H11         -3.2770    49.9710    43.7500 hc         1 KLC       0.050700
     42 H12         -4.6590    49.4170    44.6560 hc         1 KLC       0.050700
     43 H13         -1.0460    50.3680    44.1890 h1         1 KLC       0.103700
     44 H14          2.1970    52.0550    46.2650 h1         1 KLC       0.067700
     45 H15         -2.5610    51.4500    45.5460 hc         1 KLC       0.050700
     46 H16         -4.2350    51.7570    45.1440 hc         1 KLC       0.050700
     47 H17          0.9030    55.1080    45.5340 h1         1 KLC       0.030700
     48 H18          0.8580    55.4900    47.2680 h1         1 KLC       0.030700
     49 H19          2.0140    54.2880    46.6470 h1         1 KLC       0.030700
     50 H20         -0.3950    45.8730    47.1520 h1         1 KLC       0.030367
     51 H21         -0.8890    47.3880    47.9360 h1         1 KLC       0.030367
     52 H22         -2.0680    46.4350    46.9970 h1         1 KLC       0.030367
     53 H23         -4.2080    52.7660    50.0980 hc         1 KLC       0.038867
     54 H24         -5.2510    51.4410    49.5950 hc         1 KLC       0.038867
     55 H25         -3.5230    51.1530    49.8380 hc         1 KLC       0.038867
     56 H26         -5.2440    54.0430    48.1060 hc         1 KLC       0.038867
     57 H27         -4.9760    53.5050    46.4450 hc         1 KLC       0.038867
     58 H28         -6.1160    52.6420    47.4930 hc         1 KLC       0.038867
     59 H29          4.9050    49.8440    47.6890 ha         1 KLC       0.171000
     60 H30          3.1630    48.3700    48.2990 hc         1 KLC       0.043033
     61 H31          1.6110    49.1130    48.6830 hc         1 KLC       0.043033
     62 H32          1.8910    48.4090    47.0830 hc         1 KLC       0.043033
     63 H33          4.1300    52.7340    46.9940 hc         1 KLC       0.056700
     64 H34          4.5570    51.4590    44.8720 h1         1 KLC       0.029200
     65 H35          6.1860    51.0820    45.4580 h1         1 KLC       0.029200
     66 H36          6.7650    51.5370    47.9670 hc         1 KLC       0.047700
     67 H37          6.4580    53.2400    47.6500 hc         1 KLC       0.047700
     68 H38          6.3020    52.8140    50.0720 hc         1 KLC       0.030033
     69 H39          4.7000    53.2730    49.4580 hc         1 KLC       0.030033
     70 H40          5.0620    51.5700    49.8230 hc         1 KLC       0.030033
     71 H41         -1.9550    54.8170    48.2340 ho         1 KLC       0.444000
     72 H42         -5.4290    50.1060    48.1540 ho         1 KLC       0.440000
     73 H43         -0.1590    47.6890    43.9130 ho         1 KLC       0.525000
     74 H44          6.1380    52.9680    44.1130 ho         1 KLC       0.445000
     75 C21          0.9950    54.6800    46.5400 c3         1 KLC       0.141900
     76 C22         -1.0230    46.7650    47.0410 c3         1 KLC       0.150900
@<TRIPOS>BOND
     1     1     3 1   
     2     1    10 1   
     3     1    31 1   
     4     1    32 1   
     5     2     9 1   
     6     2    12 1   
     7     2    33 1   
     8     2    34 1   
     9     3    11 1   
    10     3    26 1   
    11     3    35 1   
    12     4    11 1   
    13     4    29 1   
    14     4    30 2   
    15     5     7 1   
    16     5     8 1   
    17     5    23 1   
    18     5    36 1   
    19     6     7 1   
    20     6    13 1   
    21     6    24 1   
    22     6    37 1   
    23     7    14 1   
    24     7    15 1   
    25     8     9 1   
    26     8    38 1   
    27     8    39 1   
    28     9    27 1   
    29     9    40 1   
    30    10    13 1   
    31    10    41 1   
    32    10    42 1   
    33    11    25 1   
    34    11    43 1   
    35    12    16 1   
    36    12    29 1   
    37    12    44 1   
    38    13    45 1   
    39    13    46 1   
    40    14    53 1   
    41    14    54 1   
    42    14    55 1   
    43    15    56 1   
    44    15    57 1   
    45    15    58 1   
    46    16    17 2   
    47    16    18 1   
    48    17    19 1   
    49    17    59 1   
    50    18    60 1   
    51    18    61 1   
    52    18    62 1   
    53    19    20 1   
    54    19    21 1   
    55    19    63 1   
    56    20    28 1   
    57    20    64 1   
    58    20    65 1   
    59    21    22 1   
    60    21    66 1   
    61    21    67 1   
    62    22    68 1   
    63    22    69 1   
    64    22    70 1   
    65    23    71 1   
    66    24    72 1   
    67    25    73 1   
    68    26    76 1   
    69    27    75 1   
    70    28    74 1   
    71    47    75 1   
    72    48    75 1   
    73    49    75 1   
    74    50    76 1   
    75    51    76 1   
    76    52    76 1   
@<TRIPOS>SUBSTRUCTURE
     1 KLC         1 TEMP              0 ****  ****    0 ROOT
