@<TRIPOS>MOLECULE
KLC
   76    76     1     0     0
SMALL
abcg2


@<TRIPOS>ATOM
      1 C4          -2.8030    48.6200    45.2360 c3         1 KLC      -0.098400
      2 C14          1.2480    52.0290    48.1440 c3         1 KLC      -0.103400
      3 C5          -1.3570    48.9030    45.6350 c3         1 KLC       0.137300
      4 C6           0.8180    50.0610    45.1080 c          1 KLC       0.570100
      5 C11         -2.5650    52.9500    47.8370 c3         1 KLC       0.185300
      6 C9          -3.8880    50.8630    47.1560 c3         1 KLC       0.182300
      7 C10         -3.8890    52.1640    48.0180 c3         1 KLC      -0.072000
      8 C12         -1.3000    52.1320    48.1010 c3         1 KLC      -0.103400
      9 C13          0.0040    52.9060    47.9130 c3         1 KLC       0.179300
     10 C3          -3.6120    49.8420    44.7930 c3         1 KLC      -0.066400
     11 C1          -0.5500    49.6420    44.5670 c3         1 KLC       0.130300
     12 C15          1.7920    51.2650    46.9360 c3         1 KLC       0.230500
     13 C2          -3.5490    51.0850    45.6860 c3         1 KLC      -0.077400
     14 C23         -4.0800    51.7670    49.4880 c3         1 KLC      -0.083600
     15 C24         -5.0490    53.0780    47.6060 c3         1 KLC      -0.083600
     16 C25          2.8460    50.2790    47.3850 c2         1 KLC      -0.138400
     17 C26          4.1420    50.5910    47.3980 c2         1 KLC      -0.200200
     18 C27          2.3560    48.9570    47.9040 c3         1 KLC      -0.049900
     19 C28          4.8060    51.8510    46.9180 c3         1 KLC      -0.029500
     20 C29          5.5090    51.5370    45.5990 c3         1 KLC       0.162600
     21 C31          5.7750    52.3800    47.9810 c3         1 KLC      -0.069400
     22 C32          5.0750    52.8060    49.2640 c3         1 KLC      -0.089100
     23 O16         -2.6050    54.0800    48.6940 oh         1 KLC      -0.667000
     24 O17         -5.1420    50.2100    47.1980 oh         1 KLC      -0.658000
     25 O18         -0.4340    48.9310    43.3730 oh         1 KLC      -0.688000
     26 O19         -0.6230    47.7240    45.8980 os         1 KLC      -0.473000
     27 O20          0.0070    53.5120    46.6380 os         1 KLC      -0.459000
     28 O30          6.1330    52.6990    45.1020 oh         1 KLC      -0.667000
     29 O7           0.6890    50.6070    46.3060 os         1 KLC      -0.453100
     30 O8           1.8540    49.9590    44.5070 o          1 KLC      -0.470000
     31 H1          -3.3030    48.1540    46.0890 hc         1 KLC       0.051200
     32 H2          -2.8210    47.8810    44.4310 hc         1 KLC       0.051200
     33 H3           1.0330    51.3340    48.9600 hc         1 KLC       0.056200
     34 H4           2.0770    52.6440    48.5010 hc         1 KLC       0.056200
     35 H5          -1.3710    49.5250    46.5360 h1         1 KLC       0.055700
     36 H6          -2.5420    53.2950    46.7970 h1         1 KLC       0.044700
     37 H7          -3.1280    50.1960    47.5890 h1         1 KLC       0.020700
     38 H8          -1.3070    51.7610    49.1300 hc         1 KLC       0.059700
     39 H9          -1.2950    51.2490    47.4660 hc         1 KLC       0.059700
     40 H10          0.0340    53.6930    48.6830 h1         1 KLC       0.032700
     41 H11         -3.2880    50.1440    43.7930 hc         1 KLC       0.050700
     42 H12         -4.6510    49.5280    44.6780 hc         1 KLC       0.050700
     43 H13         -1.0640    50.5780    44.3200 h1         1 KLC       0.103700
     44 H14          2.2180    51.9650    46.2150 h1         1 KLC       0.067700
     45 H15         -2.5500    51.5210    45.6190 hc         1 KLC       0.050700
     46 H16         -4.2210    51.8350    45.2600 hc         1 KLC       0.050700
     47 H17          0.7910    55.0110    45.5260 h1         1 KLC       0.030700
     48 H18          0.7320    55.3570    47.2640 h1         1 KLC       0.030700
     49 H19          1.9620    54.2600    46.6170 h1         1 KLC       0.030700
     50 H20         -0.2090    46.2910    47.2640 h1         1 KLC       0.030367
     51 H21         -0.8570    47.7860    47.9600 h1         1 KLC       0.030367
     52 H22         -1.9340    46.6530    47.1220 h1         1 KLC       0.030367
     53 H23         -4.0000    52.6320    50.1450 hc         1 KLC       0.038867
     54 H24         -5.0720    51.3430    49.6590 hc         1 KLC       0.038867
     55 H25         -3.3460    51.0280    49.8160 hc         1 KLC       0.038867
     56 H26         -5.1190    53.9370    48.2720 hc         1 KLC       0.038867
     57 H27         -4.9290    53.4600    46.5900 hc         1 KLC       0.038867
     58 H28         -6.0000    52.5480    47.6530 hc         1 KLC       0.038867
     59 H29          4.8310    49.8450    47.7910 ha         1 KLC       0.171000
     60 H30          3.1700    48.3980    48.3630 hc         1 KLC       0.043033
     61 H31          1.5710    49.0810    48.6530 hc         1 KLC       0.043033
     62 H32          1.9380    48.3330    47.1120 hc         1 KLC       0.043033
     63 H33          4.0620    52.6320    46.7270 hc         1 KLC       0.056700
     64 H34          4.7620    51.1510    44.8930 h1         1 KLC       0.029200
     65 H35          6.2350    50.7300    45.7700 h1         1 KLC       0.029200
     66 H36          6.5160    51.6040    48.2010 hc         1 KLC       0.047700
     67 H37          6.3300    53.2280    47.5760 hc         1 KLC       0.047700
     68 H38          5.7870    53.2020    49.9890 hc         1 KLC       0.030033
     69 H39          4.3380    53.5880    49.0650 hc         1 KLC       0.030033
     70 H40          4.5500    51.9750    49.7350 hc         1 KLC       0.030033
     71 H41         -2.0930    54.7840    48.2890 ho         1 KLC       0.444000
     72 H42         -5.2710    49.8420    48.0760 ho         1 KLC       0.440000
     73 H43         -0.0580    48.0640    43.5650 ho         1 KLC       0.525000
     74 H44          6.6100    52.4640    44.3010 ho         1 KLC       0.445000
     75 C21          0.9170    54.5760    46.5170 c3         1 KLC       0.141900
     76 C22         -0.9320    47.0920    47.1150 c3         1 KLC       0.150900
@<TRIPOS>BOND
     1     1     3 1   
     2     1    10 1   
     3     1    31 1   
     4     1    32 1   
     5     2     9 1   
     6     2    12 1   
     7     2    33 1   
     8     2    34 1   
     9     3    11 1   
    10     3    26 1   
    11     3    35 1   
    12     4    11 1   
    13     4    29 1   
    14     4    30 2   
    15     5     7 1   
    16     5     8 1   
    17     5    23 1   
    18     5    36 1   
    19     6     7 1   
    20     6    13 1   
    21     6    24 1   
    22     6    37 1   
    23     7    14 1   
    24     7    15 1   
    25     8     9 1   
    26     8    38 1   
    27     8    39 1   
    28     9    27 1   
    29     9    40 1   
    30    10    13 1   
    31    10    41 1   
    32    10    42 1   
    33    11    25 1   
    34    11    43 1   
    35    12    16 1   
    36    12    29 1   
    37    12    44 1   
    38    13    45 1   
    39    13    46 1   
    40    14    53 1   
    41    14    54 1   
    42    14    55 1   
    43    15    56 1   
    44    15    57 1   
    45    15    58 1   
    46    16    17 2   
    47    16    18 1   
    48    17    19 1   
    49    17    59 1   
    50    18    60 1   
    51    18    61 1   
    52    18    62 1   
    53    19    20 1   
    54    19    21 1   
    55    19    63 1   
    56    20    28 1   
    57    20    64 1   
    58    20    65 1   
    59    21    22 1   
    60    21    66 1   
    61    21    67 1   
    62    22    68 1   
    63    22    69 1   
    64    22    70 1   
    65    23    71 1   
    66    24    72 1   
    67    25    73 1   
    68    26    76 1   
    69    27    75 1   
    70    28    74 1   
    71    47    75 1   
    72    48    75 1   
    73    49    75 1   
    74    50    76 1   
    75    51    76 1   
    76    52    76 1   
@<TRIPOS>SUBSTRUCTURE
     1 KLC         1 TEMP              0 ****  ****    0 ROOT
