@<TRIPOS>MOLECULE
KLD
   53    55     1     0     0
SMALL
No Charge or Current Charge


@<TRIPOS>ATOM
      1 C13         -0.3330     3.3980     0.6020 ca         1 KLD       0.172000
      2 C15         -1.3700     1.4900    -0.4960 ca         1 KLD      -0.050300
      3 C12          0.9380     2.8440     0.3900 ca         1 KLD      -0.154000
      4 C16         -0.0930     0.9350    -0.7070 ca         1 KLD      -0.122000
      5 C14         -1.4850     2.7280     0.1630 ca         1 KLD      -0.150000
      6 C11          1.0650     1.6070    -0.2680 ca         1 KLD      -0.050300
      7 C02          5.4650    -2.3530    -0.2950 ca         1 KLD       0.600900
      8 C03          6.6730    -1.7250     0.0170 ca         1 KLD      -0.232000
      9 C04          6.6310    -0.4400     0.5780 ca         1 KLD       0.001700
     10 C05          5.3650     0.1330     0.7830 ca         1 KLD      -0.214000
     11 C06          4.2100    -0.5910     0.4280 ca         1 KLD       0.396300
     12 C09          2.4400     0.9930    -0.4940 c3         1 KLD      -0.030100
     13 C17         -2.6160     0.7520    -0.9660 c3         1 KLD      -0.035100
     14 C18         -3.1730    -0.1920     0.1230 c3         1 KLD      -0.067400
     15 C22         -6.2140    -2.4460     0.1080 c5         1 KLD       0.132800
     16 C23         -6.7480    -1.2940    -0.8050 c5         1 KLD       0.192300
     17 C24         -5.6440    -0.2050    -0.6970 c5         1 KLD      -0.115400
     18 C25         -4.3930    -1.0410    -0.3210 c5         1 KLD       0.179500
     19 F13         -0.4490     4.5850     1.2370 f          1 KLD      -0.182000
     20 N01          4.2620    -1.8290    -0.1110 nb         1 KLD      -0.755000
     21 N02          5.3830    -3.5680    -0.8380 nv         1 KLD      -1.054900
     22 N21         -4.9910    -1.8810     0.7430 n3         1 KLD      -0.712600
     23 H1           1.8190     3.3750     0.7400 ha         1 KLD       0.130000
     24 H2           0.0010    -0.0250    -1.2090 ha         1 KLD       0.118000
     25 H3          -2.4620     3.1700     0.3390 ha         1 KLD       0.131000
     26 H4           7.6180    -2.2250    -0.1700 ha         1 KLD       0.119000
     27 H5           5.2720     1.1280     1.2090 ha         1 KLD       0.122000
     28 H6           8.2380     0.9350     0.1080 hc         1 KLD       0.047033
     29 H7           7.7490     0.9560     1.8110 hc         1 KLD       0.047033
     30 H8           8.7170    -0.3870     1.1870 hc         1 KLD       0.047033
     31 H11          2.4630     0.4660    -1.4560 hc         1 KLD       0.057200
     32 H12          3.1990     1.7820    -0.5620 hc         1 KLD       0.057200
     33 H13         -3.3880     1.4750    -1.2550 hc         1 KLD       0.047200
     34 H14         -2.3900     0.1690    -1.8670 hc         1 KLD       0.047200
     35 H15         -2.3600    -0.8590     0.4340 hc         1 KLD       0.057200
     36 H16         -3.4380     0.4030     1.0050 hc         1 KLD       0.057200
     37 H20         -6.9560    -2.7560     0.8570 h1         1 KLD       0.048200
     38 H21         -5.9720    -3.3260    -0.5050 h1         1 KLD       0.048200
     39 H22         -6.8770    -1.6450    -1.8370 h1         1 KLD       0.058700
     40 H23         -5.5210     0.3430    -1.6360 hc         1 KLD       0.060700
     41 H24         -5.8800     0.5270     0.0840 hc         1 KLD       0.060700
     42 H25         -4.0780    -1.6650    -1.1710 h1         1 KLD       0.022700
     43 H26          4.4760    -3.7960    -1.2260 hn         1 KLD       0.468000
     44 H27          6.1920    -3.9150    -1.3400 hn         1 KLD       0.468000
     45 F23         -7.9760    -0.8020    -0.3510 f          1 KLD      -0.260000
     46 C08          2.8270     0.0090     0.6300 c3         1 KLD      -0.124700
     47 C21         -4.1100    -2.8840     1.3820 c3         1 KLD       0.157100
     48 C07          7.9030     0.3060     0.9410 c3         1 KLD      -0.053800
     49 H9           2.0710    -0.7830     0.6900 hc         1 KLD       0.058200
     50 H10          2.7940     0.5350     1.5920 hc         1 KLD       0.058200
     51 H17         -3.2790    -2.3980     1.9100 h1         1 KLD       0.032367
     52 H18         -4.6720    -3.4760     2.1170 h1         1 KLD       0.032367
     53 H19         -3.6920    -3.5710     0.6340 h1         1 KLD       0.032367
@<TRIPOS>BOND
     1     1     3 ar  
     2     1     5 ar  
     3     1    19 1   
     4     2     4 ar  
     5     2     5 ar  
     6     2    13 1   
     7     3     6 ar  
     8     3    23 1   
     9     4     6 ar  
    10     4    24 1   
    11     5    25 1   
    12     6    12 1   
    13     7     8 ar  
    14     7    20 ar  
    15     7    21 1   
    16     8     9 ar  
    17     8    26 1   
    18     9    10 ar  
    19     9    48 1   
    20    10    11 ar  
    21    10    27 1   
    22    11    20 ar  
    23    11    46 1   
    24    12    31 1   
    25    12    32 1   
    26    12    46 1   
    27    13    14 1   
    28    13    33 1   
    29    13    34 1   
    30    14    18 1   
    31    14    35 1   
    32    14    36 1   
    33    15    16 1   
    34    15    22 1   
    35    15    37 1   
    36    15    38 1   
    37    16    17 1   
    38    16    39 1   
    39    16    45 1   
    40    17    18 1   
    41    17    40 1   
    42    17    41 1   
    43    18    22 1   
    44    18    42 1   
    45    21    43 1   
    46    21    44 1   
    47    22    47 1   
    48    28    48 1   
    49    29    48 1   
    50    30    48 1   
    51    46    49 1   
    52    46    50 1   
    53    47    51 1   
    54    47    52 1   
    55    47    53 1   
@<TRIPOS>SUBSTRUCTURE
     1 KLD         1 TEMP              0 ****  ****    0 ROOT
