@<TRIPOS>MOLECULE
KLD
   53    55     1     0     0
SMALL
bcc


@<TRIPOS>ATOM
      1 C13         -0.4010     3.3690     0.3000 ca         1 KLD       0.136900
      2 C15         -1.4050     1.4350    -0.6720 ca         1 KLD      -0.050300
      3 C12          0.8680     2.8500     0.1410 ca         1 KLD      -0.172000
      4 C16         -0.1300     0.8980    -0.8330 ca         1 KLD      -0.140000
      5 C14         -1.5400     2.6930    -0.0920 ca         1 KLD      -0.168000
      6 C11          1.0100     1.5890    -0.4350 ca         1 KLD      -0.050300
      7 C02          5.2800    -2.1240    -0.3940 ca         1 KLD       0.666200
      8 C03          6.5110    -1.6920     0.1310 ca         1 KLD      -0.315300
      9 C04          6.5500    -0.5380     0.8860 ca         1 KLD       0.001700
     10 C05          5.3500     0.1500     1.1030 ca         1 KLD      -0.297300
     11 C06          4.1840    -0.3460     0.5500 ca         1 KLD       0.461600
     12 C09          2.3730     0.9760    -0.5870 c3         1 KLD      -0.030100
     13 C17         -2.6190     0.6520    -1.0830 c3         1 KLD      -0.035100
     14 C18         -3.1290    -0.2490     0.0430 c3         1 KLD      -0.067400
     15 C22         -6.1180    -2.3510     0.3370 c5         1 KLD       0.132800
     16 C23         -6.7060    -1.0080    -0.0230 c5         1 KLD       0.173600
     17 C24         -5.5650    -0.3140    -0.7570 c5         1 KLD      -0.115400
     18 C25         -4.2960    -1.1170    -0.4020 c5         1 KLD       0.179500
     19 F13         -0.5340     4.5880     0.8530 f          1 KLD      -0.146900
     20 N01          4.1490    -1.4590    -0.1860 nb         1 KLD      -0.755000
     21 N02          5.1950    -3.2860    -1.1050 nv         1 KLD      -0.944500
     22 N21         -4.7390    -2.0330     0.6440 n3         1 KLD      -0.712600
     23 H1           1.7350     3.4200     0.4550 ha         1 KLD       0.148000
     24 H2          -0.0230    -0.0810    -1.2880 ha         1 KLD       0.136000
     25 H3          -2.5160     3.1400     0.0470 ha         1 KLD       0.149000
     26 H4           7.4130    -2.2620    -0.0590 ha         1 KLD       0.137000
     27 H5           5.3330     1.0560     1.6960 ha         1 KLD       0.140000
     28 H6           8.1590     0.8720     0.8940 hc         1 KLD       0.047033
     29 H7           7.7260     0.2790     2.4870 hc         1 KLD       0.047033
     30 H8           8.6370    -0.7530     1.3790 hc         1 KLD       0.047033
     31 H11          2.3450     0.1990    -1.3530 hc         1 KLD       0.057200
     32 H12          3.0870     1.7320    -0.9220 hc         1 KLD       0.057200
     33 H13         -3.4110     1.3370    -1.3940 hc         1 KLD       0.047200
     34 H14         -2.3770     0.0360    -1.9540 hc         1 KLD       0.047200
     35 H15         -2.3040    -0.8780     0.3890 hc         1 KLD       0.057200
     36 H16         -3.4400     0.3600     0.8980 hc         1 KLD       0.057200
     37 H20         -6.6250    -2.8340     1.1750 h1         1 KLD       0.048200
     38 H21         -6.2120    -3.0190    -0.5380 h1         1 KLD       0.048200
     39 H22         -7.6230    -1.0810    -0.6070 h1         1 KLD       0.058700
     40 H23         -5.7430    -0.3230    -1.8310 hc         1 KLD       0.060700
     41 H24         -5.4970     0.7320    -0.4530 hc         1 KLD       0.060700
     42 H25         -3.9810    -1.6850    -1.2950 h1         1 KLD       0.022700
     43 H26          4.3760    -3.3960    -1.6800 hn         1 KLD       0.412800
     44 H27          6.0390    -3.6410    -1.5210 hn         1 KLD       0.412800
     45 F23         -7.0210    -0.3060     1.1480 f          1 KLD      -0.241300
     46 C08          2.8700     0.3620     0.7290 c3         1 KLD      -0.124700
     47 C21         -3.9100    -3.2010     0.8110 c3         1 KLD       0.157100
     48 C07          7.8390    -0.0150     1.4440 c3         1 KLD      -0.053800
     49 H9           2.1260    -0.3500     1.0950 hc         1 KLD       0.058200
     50 H10          2.9660     1.1430     1.4860 hc         1 KLD       0.058200
     51 H17         -2.8840    -2.9170     1.0490 h1         1 KLD       0.032367
     52 H18         -4.2790    -3.8060     1.6410 h1         1 KLD       0.032367
     53 H19         -3.8850    -3.8380    -0.0860 h1         1 KLD       0.032367
@<TRIPOS>BOND
     1     1     3 ar  
     2     1     5 ar  
     3     1    19 1   
     4     2     4 ar  
     5     2     5 ar  
     6     2    13 1   
     7     3     6 ar  
     8     3    23 1   
     9     4     6 ar  
    10     4    24 1   
    11     5    25 1   
    12     6    12 1   
    13     7     8 ar  
    14     7    20 ar  
    15     7    21 1   
    16     8     9 ar  
    17     8    26 1   
    18     9    10 ar  
    19     9    48 1   
    20    10    11 ar  
    21    10    27 1   
    22    11    20 ar  
    23    11    46 1   
    24    12    31 1   
    25    12    32 1   
    26    12    46 1   
    27    13    14 1   
    28    13    33 1   
    29    13    34 1   
    30    14    18 1   
    31    14    35 1   
    32    14    36 1   
    33    15    16 1   
    34    15    22 1   
    35    15    37 1   
    36    15    38 1   
    37    16    17 1   
    38    16    39 1   
    39    16    45 1   
    40    17    18 1   
    41    17    40 1   
    42    17    41 1   
    43    18    22 1   
    44    18    42 1   
    45    21    43 1   
    46    21    44 1   
    47    22    47 1   
    48    28    48 1   
    49    29    48 1   
    50    30    48 1   
    51    46    49 1   
    52    46    50 1   
    53    47    51 1   
    54    47    52 1   
    55    47    53 1   
@<TRIPOS>SUBSTRUCTURE
     1 KLD         1 TEMP              0 ****  ****    0 ROOT
