@<TRIPOS>MOLECULE
KLE
   24    25     1     0     0
SMALL
abcg2


@<TRIPOS>ATOM
      1 C10        -19.8510   -21.6830    -9.2360 ca         1 KLE      -0.099500
      2 C13        -20.0200   -23.9260    -7.6160 ca         1 KLE      -0.108500
      3 S01        -20.4960   -18.8040    -8.0990 ss         1 KLE       0.337000
      4 C02        -19.9450   -20.1930    -7.2370 cc         1 KLE      -0.178000
      5 C03        -19.5410   -19.8530    -5.9730 cd         1 KLE      -0.135000
      6 C04        -19.6650   -18.4690    -5.7070 cd         1 KLE      -0.118000
      7 C05        -20.1640   -17.7680    -6.7680 cc         1 KLE      -0.293900
      8 C06        -20.4550   -16.3340    -6.9220 ce         1 KLE       0.723800
      9 N07        -20.0710   -15.5390    -5.8980 nv         1 KLE      -1.110200
     10 N08        -21.0280   -15.9690    -8.0080 n2         1 KLE      -0.864100
     11 C09        -19.9480   -21.5200    -7.8510 ca         1 KLE      -0.010000
     12 C11        -19.8440   -22.9490    -9.8000 ca         1 KLE      -0.108500
     13 C12        -19.9250   -24.0760    -8.9940 ca         1 KLE      -0.106000
     14 C14        -20.0360   -22.6620    -7.0500 ca         1 KLE      -0.099500
     15 H1         -19.7620   -20.8170    -9.8820 ha         1 KLE       0.115500
     16 H2         -20.0910   -24.7970    -6.9780 ha         1 KLE       0.113500
     17 H3         -19.1460   -20.5630    -5.2590 ha         1 KLE       0.134000
     18 H4         -19.3840   -18.0300    -4.7600 ha         1 KLE       0.125000
     19 H5         -19.6590   -15.9000    -5.0570 hn         1 KLE       0.482000
     20 H6         -20.3070   -14.5620    -5.8980 hn         1 KLE       0.482000
     21 H7         -21.1810   -14.9650    -8.0300 hn         1 KLE       0.376400
     22 H8         -19.7680   -23.0530   -10.8750 ha         1 KLE       0.113500
     23 H9         -19.9160   -25.0640    -9.4360 ha         1 KLE       0.113000
     24 H10        -20.1330   -22.5610    -5.9770 ha         1 KLE       0.115500
@<TRIPOS>BOND
     1     1    11 ar  
     2     1    12 ar  
     3     1    15 1   
     4     2    13 ar  
     5     2    14 ar  
     6     2    16 1   
     7     3     4 1   
     8     3     7 1   
     9     4     5 2   
    10     4    11 1   
    11     5     6 1   
    12     5    17 1   
    13     6     7 2   
    14     6    18 1   
    15     7     8 1   
    16     8     9 1   
    17     8    10 2   
    18     9    19 1   
    19     9    20 1   
    20    10    21 1   
    21    11    14 ar  
    22    12    13 ar  
    23    12    22 1   
    24    13    23 1   
    25    14    24 1   
@<TRIPOS>SUBSTRUCTURE
     1 KLE         1 TEMP              0 ****  ****    0 ROOT
