@<TRIPOS>MOLECULE
KLE
   24    25     1     0     0
SMALL
No Charge or Current Charge


@<TRIPOS>ATOM
      1 C10        -19.9220   -21.7480    -9.2770 ca         1 KLE      -0.099500
      2 C13        -19.9870   -23.9450    -7.5320 ca         1 KLE      -0.108500
      3 S01        -20.6190   -18.7380    -8.1940 ss         1 KLE       0.337000
      4 C02        -19.9780   -20.1530    -7.3630 cc         1 KLE      -0.178000
      5 C03        -19.4230   -19.8270    -6.1510 cd         1 KLE      -0.135000
      6 C04        -19.5330   -18.4410    -5.8550 cd         1 KLE      -0.118000
      7 C05        -20.1690   -17.7040    -6.8360 cc         1 KLE      -0.293900
      8 C06        -20.4440   -16.2820    -6.8900 ce         1 KLE       0.723800
      9 N07        -20.2780   -15.5430    -5.7870 nv         1 KLE      -1.110200
     10 N08        -20.7050   -15.6790    -7.9700 n2         1 KLE      -0.864100
     11 C09        -19.9600   -21.5240    -7.8840 ca         1 KLE      -0.010000
     12 C11        -19.9110   -23.0560    -9.7910 ca         1 KLE      -0.108500
     13 C12        -19.9420   -24.1560    -8.9190 ca         1 KLE      -0.106000
     14 C14        -19.9970   -22.6370    -7.0170 ca         1 KLE      -0.099500
     15 H1         -19.8910   -20.9090    -9.9670 ha         1 KLE       0.115500
     16 H2         -20.0180   -24.7960    -6.8540 ha         1 KLE       0.113500
     17 H3         -18.9390   -20.5360    -5.4860 ha         1 KLE       0.134000
     18 H4         -19.1410   -18.0080    -4.9390 ha         1 KLE       0.125000
     19 H5         -20.2310   -16.0910    -4.9370 hn         1 KLE       0.482000
     20 H6         -20.8660   -14.7200    -5.7240 hn         1 KLE       0.482000
     21 H7         -20.5230   -14.6830    -7.8110 hn         1 KLE       0.376400
     22 H8         -19.8760   -23.2160   -10.8670 ha         1 KLE       0.113500
     23 H9         -19.9340   -25.1680    -9.3180 ha         1 KLE       0.113000
     24 H10        -20.0480   -22.4960    -5.9410 ha         1 KLE       0.115500
@<TRIPOS>BOND
     1     1    11 ar  
     2     1    12 ar  
     3     1    15 1   
     4     2    13 ar  
     5     2    14 ar  
     6     2    16 1   
     7     3     4 1   
     8     3     7 1   
     9     4     5 2   
    10     4    11 1   
    11     5     6 1   
    12     5    17 1   
    13     6     7 2   
    14     6    18 1   
    15     7     8 1   
    16     8     9 1   
    17     8    10 2   
    18     9    19 1   
    19     9    20 1   
    20    10    21 1   
    21    11    14 ar  
    22    12    13 ar  
    23    12    22 1   
    24    13    23 1   
    25    14    24 1   
@<TRIPOS>SUBSTRUCTURE
     1 KLE         1 TEMP              0 ****  ****    0 ROOT
