@<TRIPOS>MOLECULE
KLF
   19    19     1     0     0
SMALL
bcc


@<TRIPOS>ATOM
      1 N            4.6010   -23.3130     0.1030 n7         1 KLF      -0.807200
      2 CA           5.7620   -24.1190    -0.2770 c5         1 KLF       0.070500
      3 C            6.2190   -23.8840    -1.7110 c          1 KLF       0.672100
      4 O            7.1470   -24.5290    -2.1830 o          1 KLF      -0.620100
      5 CB           5.3670   -25.6030    -0.0620 c5         1 KLF      -0.078400
      6 CG           4.1460   -25.5260     0.8400 c5         1 KLF       0.104100
      7 CD           3.4960   -24.2390     0.3360 c5         1 KLF       0.108800
      8 OD1          4.5910   -25.4070     2.1760 oh         1 KLF      -0.595800
      9 ND2          5.5380   -22.9450    -2.3710 nt         1 KLF      -0.662000
     10 H1           4.8050   -22.8150     0.9580 hn         1 KLF       0.364800
     11 H3           6.6160   -23.8630     0.3570 h1         1 KLF       0.078700
     12 H4           5.0830   -26.0760    -1.0040 hc         1 KLF       0.072700
     13 H5           6.1720   -26.1970     0.3690 hc         1 KLF       0.072700
     14 H6           3.4870   -26.3940     0.7140 h1         1 KLF       0.051700
     15 H7           2.7670   -23.8120     1.0260 h1         1 KLF       0.058700
     16 H8           2.9740   -24.4440    -0.6040 h1         1 KLF       0.058700
     17 H9           3.8250   -25.2560     2.7380 ho         1 KLF       0.403000
     18 H10          5.7600   -22.7100    -3.3240 hn         1 KLF       0.324500
     19 H11          4.7970   -22.4590    -1.8910 hn         1 KLF       0.324500
@<TRIPOS>BOND
     1     1     2 1   
     2     1     7 1   
     3     1    10 1   
     4     2     3 1   
     5     2     5 1   
     6     2    11 1   
     7     3     4 2   
     8     3     9 1   
     9     5     6 1   
    10     5    12 1   
    11     5    13 1   
    12     6     7 1   
    13     6     8 1   
    14     6    14 1   
    15     7    15 1   
    16     7    16 1   
    17     8    17 1   
    18     9    18 1   
    19     9    19 1   
@<TRIPOS>SUBSTRUCTURE
     1 KLF         1 TEMP              0 ****  ****    0 ROOT
