@<TRIPOS>MOLECULE
KLF
   19    19     1     0     0
SMALL
No Charge or Current Charge


@<TRIPOS>ATOM
      1 N            4.4290   -23.3490     0.1120 n7         1 KLF      -0.862400
      2 CA           5.6590   -24.0910    -0.3630 c5         1 KLF       0.070500
      3 C            5.9760   -23.9480    -1.9050 c          1 KLF       0.605100
      4 O            6.2610   -24.8410    -2.6900 o          1 KLF      -0.620100
      5 CB           5.4330   -25.5990     0.0320 c5         1 KLF      -0.078400
      6 CG           4.1970   -25.5510     0.9690 c5         1 KLF       0.127300
      7 CD           3.4050   -24.4100     0.2670 c5         1 KLF       0.108800
      8 OD1          4.5660   -25.2260     2.3180 oh         1 KLF      -0.658000
      9 ND2          5.9070   -22.6740    -2.3520 nt         1 KLF      -0.595000
     10 H1           4.6300   -23.0100     1.0640 hn         1 KLF       0.420000
     11 H3           6.5410   -23.6910     0.1570 h1         1 KLF       0.078700
     12 H4           5.2050   -26.2250    -0.8380 hc         1 KLF       0.072700
     13 H5           6.3120   -26.0410     0.5150 hc         1 KLF       0.072700
     14 H6           3.6420   -26.5000     0.9470 h1         1 KLF       0.051700
     15 H7           2.5460   -24.0690     0.8620 h1         1 KLF       0.058700
     16 H8           3.0250   -24.7390    -0.7120 h1         1 KLF       0.058700
     17 H9           3.7370   -25.2020     2.8450 ho         1 KLF       0.442000
     18 H10          6.0740   -22.4760    -3.3260 hn         1 KLF       0.324500
     19 H11          5.6100   -21.9500    -1.7150 hn         1 KLF       0.324500
@<TRIPOS>BOND
     1     1     2 1   
     2     1     7 1   
     3     1    10 1   
     4     2     3 1   
     5     2     5 1   
     6     2    11 1   
     7     3     4 2   
     8     3     9 1   
     9     5     6 1   
    10     5    12 1   
    11     5    13 1   
    12     6     7 1   
    13     6     8 1   
    14     6    14 1   
    15     7    15 1   
    16     7    16 1   
    17     8    17 1   
    18     9    18 1   
    19     9    19 1   
@<TRIPOS>SUBSTRUCTURE
     1 KLF         1 TEMP              0 ****  ****    0 ROOT
