@<TRIPOS>MOLECULE
KLG
   31    31     1     0     0
SMALL
bcc


@<TRIPOS>ATOM
      1 O3           3.7470     0.8430    -1.5920 o          1 KLG      -0.561100
      2 C10          3.6150     1.0110    -0.3950 c          1 KLG       0.670100
      3 N1           4.4920     1.6580     0.3870 ns         1 KLG      -0.445400
      4 O4           5.4820     2.3980    -0.1820 oh         1 KLG      -0.382100
      5 C9           2.4060     0.4990     0.3700 c3         1 KLG       0.113800
      6 N2           1.9440    -0.7180    -0.2740 n7         1 KLG      -0.805100
      7 S1           0.6000    -1.4670     0.3090 s6         1 KLG       1.212900
      8 O1           0.4400    -2.6910    -0.4600 o          1 KLG      -0.593800
      9 O2           0.7500    -1.5460     1.7560 o          1 KLG      -0.593800
     10 C8          -0.7900    -0.3960    -0.0520 c3         1 KLG      -0.233600
     11 C7          -2.0960    -0.9720     0.4910 c3         1 KLG       0.003900
     12 C6          -3.2370    -0.0470     0.1670 ca         1 KLG      -0.082300
     13 C3          -3.6760     0.8910     1.0970 ca         1 KLG      -0.123000
     14 C1          -4.7070     1.7680     0.7880 ca         1 KLG      -0.126500
     15 C5          -3.8500    -0.0880    -1.0830 ca         1 KLG      -0.123000
     16 C4          -4.8800     0.7870    -1.3970 ca         1 KLG      -0.126500
     17 C2          -5.3120     1.7190    -0.4610 ca         1 KLG      -0.126000
     18 H9           2.6590     0.2930     1.4090 h1         1 KLG       0.070700
     19 H9A          1.6580     1.3030     0.3640 h1         1 KLG       0.070700
     20 HN2          1.9650    -0.6780    -1.2890 hn         1 KLG       0.451800
     21 H8          -0.5770     0.5790     0.3900 h1         1 KLG       0.092200
     22 H8A         -0.8210    -0.2820    -1.1370 h1         1 KLG       0.092200
     23 H7          -2.2760    -1.9560     0.0530 hc         1 KLG       0.066700
     24 H7A         -2.0190    -1.1030     1.5710 hc         1 KLG       0.066700
     25 H3          -3.2110     0.9330     2.0760 ha         1 KLG       0.130500
     26 H1          -5.0410     2.4870     1.5240 ha         1 KLG       0.131500
     27 H5          -3.5200    -0.8140    -1.8180 ha         1 KLG       0.130500
     28 H4          -5.3470     0.7410    -2.3720 ha         1 KLG       0.131500
     29 H2          -6.1180     2.4000    -0.7020 ha         1 KLG       0.132000
     30 H13          4.2830     1.8920     1.3480 hn         1 KLG       0.339500
     31 H14          6.2820     1.8590    -0.1280 ho         1 KLG       0.414000
@<TRIPOS>BOND
     1     1     2 2   
     2     2     3 1   
     3     2     5 1   
     4     3     4 1   
     5     3    30 1   
     6     4    31 1   
     7     5     6 1   
     8     5    18 1   
     9     5    19 1   
    10     6     7 1   
    11     6    20 1   
    12     7     8 2   
    13     7     9 2   
    14     7    10 1   
    15    10    11 1   
    16    10    21 1   
    17    10    22 1   
    18    11    12 1   
    19    11    23 1   
    20    11    24 1   
    21    12    13 ar  
    22    12    15 ar  
    23    13    14 ar  
    24    13    25 1   
    25    14    17 ar  
    26    14    26 1   
    27    15    16 ar  
    28    15    27 1   
    29    16    17 ar  
    30    16    28 1   
    31    17    29 1   
@<TRIPOS>SUBSTRUCTURE
     1 KLG         1 TEMP              0 ****  ****    0 ROOT
