@<TRIPOS>MOLECULE
KLG
   31    31     1     0     0
SMALL
No Charge or Current Charge


@<TRIPOS>ATOM
      1 O3           3.7280     0.9230    -1.6400 o          1 KLG      -0.561100
      2 C10          3.5850     1.0340    -0.4250 c          1 KLG       0.603100
      3 N1           4.4530     1.7960     0.3550 ns         1 KLG      -0.378400
      4 O4           5.4080     2.7010    -0.2560 oh         1 KLG      -0.421100
      5 C9           2.4290     0.3350     0.3540 c3         1 KLG       0.113800
      6 N2           1.9240    -0.9290    -0.2810 n7         1 KLG      -0.860300
      7 S1           0.5810    -1.6860     0.3510 s6         1 KLG       1.182100
      8 O1           0.4080    -2.9100    -0.4320 o          1 KLG      -0.523000
      9 O2           0.7890    -1.7590     1.7990 o          1 KLG      -0.523000
     10 C8          -0.7430    -0.5260    -0.0160 c3         1 KLG      -0.344400
     11 C7          -2.1280    -1.0400     0.4390 c3         1 KLG       0.003900
     12 C6          -3.2250    -0.0340     0.1210 ca         1 KLG      -0.082300
     13 C3          -3.5240     1.0000     1.0290 ca         1 KLG      -0.105000
     14 C1          -4.5330     1.9330     0.7340 ca         1 KLG      -0.108500
     15 C5          -3.9430    -0.1230    -1.0880 ca         1 KLG      -0.105000
     16 C4          -4.9530     0.8100    -1.3820 ca         1 KLG      -0.108500
     17 C2          -5.2490     1.8380    -0.4710 ca         1 KLG      -0.108000
     18 H9           2.8000     0.1230     1.3660 h1         1 KLG       0.070700
     19 H9A          1.6330     1.0830     0.4550 h1         1 KLG       0.070700
     20 HN2          1.6050    -0.7190    -1.2280 hn         1 KLG       0.507000
     21 H8          -0.5030     0.4090     0.4990 h1         1 KLG       0.092200
     22 H8A         -0.7370    -0.3640    -1.0990 h1         1 KLG       0.092200
     23 H7          -2.3450    -2.0000    -0.0480 hc         1 KLG       0.066700
     24 H7A         -2.1100    -1.2430     1.5180 hc         1 KLG       0.066700
     25 H3          -2.9730     1.0830     1.9630 ha         1 KLG       0.112500
     26 H1          -4.7600     2.7300     1.4400 ha         1 KLG       0.113500
     27 H5          -3.7190    -0.9140    -1.8000 ha         1 KLG       0.112500
     28 H4          -5.5050     0.7360    -2.3170 ha         1 KLG       0.113500
     29 H2          -6.0300     2.5600    -0.7000 ha         1 KLG       0.114000
     30 H13          4.2210     1.9800     1.3310 hn         1 KLG       0.339500
     31 H14          6.2610     2.4740     0.1850 ho         1 KLG       0.453000
@<TRIPOS>BOND
     1     1     2 2   
     2     2     3 1   
     3     2     5 1   
     4     3     4 1   
     5     3    30 1   
     6     4    31 1   
     7     5     6 1   
     8     5    18 1   
     9     5    19 1   
    10     6     7 1   
    11     6    20 1   
    12     7     8 2   
    13     7     9 2   
    14     7    10 1   
    15    10    11 1   
    16    10    21 1   
    17    10    22 1   
    18    11    12 1   
    19    11    23 1   
    20    11    24 1   
    21    12    13 ar  
    22    12    15 ar  
    23    13    14 ar  
    24    13    25 1   
    25    14    17 ar  
    26    14    26 1   
    27    15    16 ar  
    28    15    27 1   
    29    16    17 ar  
    30    16    28 1   
    31    17    29 1   
@<TRIPOS>SUBSTRUCTURE
     1 KLG         1 TEMP              0 ****  ****    0 ROOT
