@<TRIPOS>MOLECULE
KLH
   38    39     1     0     0
SMALL
bcc


@<TRIPOS>ATOM
      1 O4          -4.1760    -0.3050     0.5960 o          1 KLH      -0.539100
      2 C13         -3.4180    -0.6140    -0.3010 c          1 KLH       0.680100
      3 N1          -3.4450    -1.7870    -0.9510 ns         1 KLH      -0.449400
      4 O2          -4.4800    -2.6500    -0.7620 oh         1 KLH      -0.381100
      5 C1          -2.3540     0.3310    -0.8440 c5         1 KLH       0.144500
      6 N2          -1.6940     1.0550     0.2350 n3         1 KLH      -0.752500
      7 C4          -1.6010     2.5010    -0.0230 c5         1 KLH       0.221800
      8 C6          -1.9990     2.6110    -1.4880 c5         1 KLH      -0.097400
      9 C3          -2.9840     1.4620    -1.6670 c5         1 KLH      -0.078400
     10 S1          -0.5950     0.2970     1.1750 s6         1 KLH       1.244900
     11 O1          -0.4040     1.1030     2.3710 o          1 KLH      -0.596800
     12 O3          -1.0340    -1.0870     1.3000 o          1 KLH      -0.596800
     13 C7           0.9470     0.2990     0.2590 c3         1 KLH      -0.232600
     14 C8           2.0590    -0.4000     1.0370 c3         1 KLH       0.002900
     15 C9           3.3300    -0.4030     0.2330 ca         1 KLH      -0.079300
     16 C10          4.2690     0.6140     0.3820 ca         1 KLH      -0.124000
     17 C2           5.4270     0.6270    -0.3840 ca         1 KLH      -0.127000
     18 C11          3.5710    -1.4060    -0.7030 ca         1 KLH      -0.124000
     19 C12          4.7270    -1.3960    -1.4710 ca         1 KLH      -0.127000
     20 C5           5.6600    -0.3790    -1.3130 ca         1 KLH      -0.127000
     21 H1          -1.6350    -0.2120    -1.4710 h1         1 KLH       0.045700
     22 H4          -2.2950     3.0370     0.6250 h1         1 KLH       0.065200
     23 H4A         -0.5980     2.8860     0.1670 h1         1 KLH       0.065200
     24 H6          -2.4330     3.5810    -1.7240 hc         1 KLH       0.056700
     25 H6A         -1.1280     2.4660    -2.1310 hc         1 KLH       0.056700
     26 H3          -3.1250     1.1660    -2.7050 hc         1 KLH       0.069700
     27 H3A         -3.9570     1.7300    -1.2500 hc         1 KLH       0.069700
     28 H7           0.7520    -0.2040    -0.6910 h1         1 KLH       0.088700
     29 H7A          1.2040     1.3380     0.0460 h1         1 KLH       0.088700
     30 H8           2.2200     0.1100     1.9880 hc         1 KLH       0.066200
     31 H8A          1.7580    -1.4240     1.2650 hc         1 KLH       0.066200
     32 H10          4.0970     1.3990     1.1090 ha         1 KLH       0.130500
     33 H2           6.1510     1.4210    -0.2510 ha         1 KLH       0.131500
     34 H11          2.8490    -2.2040    -0.8290 ha         1 KLH       0.130500
     35 H12          4.9020    -2.1860    -2.1900 ha         1 KLH       0.131500
     36 H5           6.5640    -0.3710    -1.9080 ha         1 KLH       0.131000
     37 H17         -2.8660    -1.9790    -1.7560 hn         1 KLH       0.332500
     38 H18         -4.1680    -3.3120    -0.1310 ho         1 KLH       0.413000
@<TRIPOS>BOND
     1     1     2 2   
     2     2     3 1   
     3     2     5 1   
     4     3     4 1   
     5     3    37 1   
     6     4    38 1   
     7     5     6 1   
     8     5     9 1   
     9     5    21 1   
    10     6     7 1   
    11     6    10 1   
    12     7     8 1   
    13     7    22 1   
    14     7    23 1   
    15     8     9 1   
    16     8    24 1   
    17     8    25 1   
    18     9    26 1   
    19     9    27 1   
    20    10    11 2   
    21    10    12 2   
    22    10    13 1   
    23    13    14 1   
    24    13    28 1   
    25    13    29 1   
    26    14    15 1   
    27    14    30 1   
    28    14    31 1   
    29    15    16 ar  
    30    15    18 ar  
    31    16    17 ar  
    32    16    32 1   
    33    17    20 ar  
    34    17    33 1   
    35    18    19 ar  
    36    18    34 1   
    37    19    20 ar  
    38    19    35 1   
    39    20    36 1   
@<TRIPOS>SUBSTRUCTURE
     1 KLH         1 TEMP              0 ****  ****    0 ROOT
