@<TRIPOS>MOLECULE
KLH
   38    39     1     0     0
SMALL
No Charge or Current Charge


@<TRIPOS>ATOM
      1 O4          -4.4510    -0.2680     0.3880 o          1 KLH      -0.539100
      2 C13         -3.5140    -0.5650    -0.3490 c          1 KLH       0.613100
      3 N1          -3.3010    -1.8620    -0.8210 ns         1 KLH      -0.382400
      4 O2          -4.3210    -2.8820    -0.6810 oh         1 KLH      -0.420100
      5 C1          -2.3880     0.3970    -0.8970 c5         1 KLH       0.144500
      6 N2          -1.6970     1.2420     0.1330 n3         1 KLH      -0.752500
      7 C4          -1.2930     2.4680    -0.5730 c5         1 KLH       0.221800
      8 C6          -2.6300     2.8170    -1.2540 c5         1 KLH      -0.097400
      9 C3          -3.0280     1.4470    -1.8690 c5         1 KLH      -0.078400
     10 S1          -0.6020     0.5120     1.2400 s6         1 KLH       1.214100
     11 O1          -0.4540     1.4460     2.3600 o          1 KLH      -0.526000
     12 O3          -1.1070    -0.8410     1.4900 o          1 KLH      -0.526000
     13 C7           0.9460     0.3850     0.3280 c3         1 KLH      -0.343400
     14 C8           2.0570    -0.3270     1.1310 c3         1 KLH       0.002900
     15 C9           3.3490    -0.4110     0.3310 ca         1 KLH      -0.079300
     16 C10          4.3260     0.5970     0.4470 ca         1 KLH      -0.106000
     17 C2           5.5170     0.5210    -0.2960 ca         1 KLH      -0.109000
     18 C11          3.5750    -1.4940    -0.5420 ca         1 KLH      -0.106000
     19 C12          4.7650    -1.5710    -1.2850 ca         1 KLH      -0.109000
     20 C5           5.7370    -0.5630    -1.1620 ca         1 KLH      -0.109000
     21 H1          -1.6480    -0.2010    -1.4470 h1         1 KLH       0.045700
     22 H4          -0.9630     3.2620     0.1120 h1         1 KLH       0.065200
     23 H4A         -0.4950     2.2850    -1.3070 h1         1 KLH       0.065200
     24 H6          -3.3690     3.1570    -0.5190 hc         1 KLH       0.056700
     25 H6A         -2.5260     3.6060    -2.0070 hc         1 KLH       0.056700
     26 H3          -2.6170     1.3320    -2.8790 hc         1 KLH       0.069700
     27 H3A         -4.1160     1.3470    -1.9590 hc         1 KLH       0.069700
     28 H7           0.7220    -0.1660    -0.5910 h1         1 KLH       0.088700
     29 H7A          1.2510     1.4070     0.0810 h1         1 KLH       0.088700
     30 H8           2.2330     0.2080     2.0730 hc         1 KLH       0.066200
     31 H8A          1.7240    -1.3350     1.4090 hc         1 KLH       0.066200
     32 H10          4.1610     1.4420     1.1130 ha         1 KLH       0.112500
     33 H2           6.2670     1.3030    -0.2020 ha         1 KLH       0.113500
     34 H11          2.8260    -2.2770    -0.6450 ha         1 KLH       0.112500
     35 H12          4.9340    -2.4100    -1.9570 ha         1 KLH       0.113500
     36 H5           6.6590    -0.6220    -1.7380 ha         1 KLH       0.113000
     37 H17         -2.5920    -2.0310    -1.5330 hn         1 KLH       0.332500
     38 H18         -3.8370    -3.6430    -0.2820 ho         1 KLH       0.452000
@<TRIPOS>BOND
     1     1     2 2   
     2     2     3 1   
     3     2     5 1   
     4     3     4 1   
     5     3    37 1   
     6     4    38 1   
     7     5     6 1   
     8     5     9 1   
     9     5    21 1   
    10     6     7 1   
    11     6    10 1   
    12     7     8 1   
    13     7    22 1   
    14     7    23 1   
    15     8     9 1   
    16     8    24 1   
    17     8    25 1   
    18     9    26 1   
    19     9    27 1   
    20    10    11 2   
    21    10    12 2   
    22    10    13 1   
    23    13    14 1   
    24    13    28 1   
    25    13    29 1   
    26    14    15 1   
    27    14    30 1   
    28    14    31 1   
    29    15    16 ar  
    30    15    18 ar  
    31    16    17 ar  
    32    16    32 1   
    33    17    20 ar  
    34    17    33 1   
    35    18    19 ar  
    36    18    34 1   
    37    19    20 ar  
    38    19    35 1   
    39    20    36 1   
@<TRIPOS>SUBSTRUCTURE
     1 KLH         1 TEMP              0 ****  ****    0 ROOT
