@<TRIPOS>MOLECULE
KLI
   69    74     1     0     0
SMALL
abcg2


@<TRIPOS>ATOM
      1 N01          0.2440     0.1460     0.7120 na         1 KLI      -0.639200
      2 N02          4.6620     0.7960    -1.0950 nc         1 KLI      -0.686000
      3 N03          4.0080    -1.2660    -0.5460 nd         1 KLI      -0.401300
      4 N04         -3.7320     2.7320    -0.3100 nh         1 KLI      -0.782400
      5 N05         -6.3140     3.4890     0.6130 n3         1 KLI      -0.718600
      6 C06         -1.7080     2.9600    -1.6270 ca         1 KLI       0.109000
      7 C07         -2.4080     2.4020    -0.5370 ca         1 KLI       0.308000
      8 C08         -1.7250     1.4750     0.2370 ca         1 KLI      -0.216000
      9 C09         -0.4110     1.0950    -0.0560 ca         1 KLI       0.327000
     10 C10          0.2680     1.6970    -1.1230 ca         1 KLI      -0.199600
     11 C11         -0.4140     2.6390    -1.9040 ca         1 KLI      -0.052000
     12 C12          1.5220    -0.1640     0.4440 cd         1 KLI       0.109000
     13 C13          2.2520     0.3930    -0.5640 cc         1 KLI      -0.343000
     14 C14          1.6550     1.3630    -1.4520 c          1 KLI       0.607900
     15 C15          3.6330    -0.0370    -0.7490 cc         1 KLI       0.648800
     16 C16          5.6830     0.0080    -1.0750 cd         1 KLI       0.480300
     17 C17         -0.4340    -0.5380     1.8090 c3         1 KLI       0.272100
     18 C18         -1.5660    -1.4310     1.3720 ca         1 KLI      -0.133300
     19 C19         -2.7960    -1.3700     2.0190 ca         1 KLI      -0.086000
     20 C20         -3.8490    -2.1890     1.6530 ca         1 KLI      -0.080000
     21 C21         -3.6800    -3.0960     0.6140 ca         1 KLI      -0.161300
     22 C22         -2.4620    -3.1880    -0.0450 ca         1 KLI      -0.100000
     23 C23         -1.4320    -2.3630     0.3560 ca         1 KLI       0.192000
     24 C24         -4.8400    -3.9370     0.1750 c3         1 KLI       0.358300
     25 C25         -4.5180     1.8340     0.5160 c6         1 KLI       0.195800
     26 C26         -5.9960     2.1100     0.3120 c6         1 KLI       0.158800
     27 C27         -5.5310     4.3780    -0.2200 c6         1 KLI       0.158800
     28 C28         -4.0490     4.1300    -0.0240 c6         1 KLI       0.195800
     29 C29         -7.7310     3.7470     0.4880 c3         1 KLI       0.152100
     30 C30          7.1090     0.3300    -1.3320 c3         1 KLI      -0.062400
     31 C31          7.9490     0.1280    -0.0940 ca         1 KLI      -0.094300
     32 C32          8.7940    -0.9710     0.0230 ca         1 KLI      -0.093500
     33 C33          9.5530    -1.1560     1.1710 ca         1 KLI      -0.111000
     34 C34          9.4710    -0.2460     2.2160 ca         1 KLI      -0.102000
     35 C35          8.6270     0.8530     2.1060 ca         1 KLI      -0.111000
     36 C36          7.8720     1.0380     0.9570 ca         1 KLI      -0.093500
     37 O37          2.2380     1.8640    -2.4090 o          1 KLI      -0.533100
     38 O38          5.3600    -1.2360    -0.7490 os         1 KLI      -0.087700
     39 F39         -5.6730    -3.2390    -0.6100 f          1 KLI      -0.108333
     40 F40         -4.4580    -5.0120    -0.5190 f          1 KLI      -0.108333
     41 F41         -5.5610    -4.3710     1.2140 f          1 KLI      -0.108333
     42 F42         -0.2530    -2.4760    -0.2690 f          1 KLI      -0.159000
     43 F43         -2.3550     3.8110    -2.4370 f          1 KLI      -0.172000
     44 H08         -2.2310     1.0660     1.0950 ha         1 KLI       0.120000
     45 H11          0.0830     3.0890    -2.7540 ha         1 KLI       0.159000
     46 H12          1.9700    -0.8950     1.1030 h4         1 KLI       0.213000
     47 H17          0.3160    -1.1230     2.3390 h1         1 KLI       0.073200
     48 H17A        -0.8060     0.2000     2.5210 h1         1 KLI       0.073200
     49 H19         -2.9300    -0.6600     2.8260 ha         1 KLI       0.124000
     50 H20         -4.7900    -2.1080     2.1800 ha         1 KLI       0.139000
     51 H22         -2.2960    -3.8880    -0.8530 ha         1 KLI       0.157000
     52 H25         -4.3110     0.8030     0.2230 h1         1 KLI       0.046950
     53 H25A        -4.2700     1.9350     1.5830 h1         1 KLI       0.046950
     54 H26         -6.5650     1.4560     0.9760 h1         1 KLI       0.044200
     55 H26A        -6.2700     1.8420    -0.7230 h1         1 KLI       0.044200
     56 H27         -5.7780     4.2640    -1.2900 h1         1 KLI       0.044200
     57 H27A        -5.7510     5.4120     0.0530 h1         1 KLI       0.044200
     58 H28         -3.7710     4.3730     1.0100 h1         1 KLI       0.046950
     59 H28A        -3.4890     4.7950    -0.6750 h1         1 KLI       0.046950
     60 H29         -8.2890     3.1070     1.1720 h1         1 KLI       0.033367
     61 H29A        -7.9460     4.7840     0.7490 h1         1 KLI       0.033367
     62 H29B        -8.1150     3.5700    -0.5290 h1         1 KLI       0.033367
     63 H30          7.4760    -0.2980    -2.1470 hc         1 KLI       0.084200
     64 H30A         7.1570     1.3640    -1.6720 hc         1 KLI       0.084200
     65 H32          8.8640    -1.6850    -0.7890 ha         1 KLI       0.117500
     66 H33         10.2090    -2.0140     1.2480 ha         1 KLI       0.114500
     67 H34         10.0620    -0.3900     3.1110 ha         1 KLI       0.113000
     68 H35          8.5580     1.5670     2.9160 ha         1 KLI       0.114500
     69 H36          7.2180     1.8990     0.8770 ha         1 KLI       0.117500
@<TRIPOS>BOND
     1     1     9 1   
     2     1    12 1   
     3     1    17 1   
     4     2    15 1   
     5     2    16 2   
     6     3    15 2   
     7     3    38 1   
     8     4     7 1   
     9     4    25 1   
    10     4    28 1   
    11     5    26 1   
    12     5    27 1   
    13     5    29 1   
    14     6     7 ar  
    15     6    11 ar  
    16     6    43 1   
    17     7     8 ar  
    18     8     9 ar  
    19     8    44 1   
    20     9    10 ar  
    21    10    11 ar  
    22    10    14 1   
    23    11    45 1   
    24    12    13 2   
    25    12    46 1   
    26    13    14 1   
    27    13    15 1   
    28    14    37 2   
    29    16    30 1   
    30    16    38 1   
    31    17    18 1   
    32    17    47 1   
    33    17    48 1   
    34    18    19 ar  
    35    18    23 ar  
    36    19    20 ar  
    37    19    49 1   
    38    20    21 ar  
    39    20    50 1   
    40    21    22 ar  
    41    21    24 1   
    42    22    23 ar  
    43    22    51 1   
    44    23    42 1   
    45    24    39 1   
    46    24    40 1   
    47    24    41 1   
    48    25    26 1   
    49    25    52 1   
    50    25    53 1   
    51    26    54 1   
    52    26    55 1   
    53    27    28 1   
    54    27    56 1   
    55    27    57 1   
    56    28    58 1   
    57    28    59 1   
    58    29    60 1   
    59    29    61 1   
    60    29    62 1   
    61    30    31 1   
    62    30    63 1   
    63    30    64 1   
    64    31    32 ar  
    65    31    36 ar  
    66    32    33 ar  
    67    32    65 1   
    68    33    34 ar  
    69    33    66 1   
    70    34    35 ar  
    71    34    67 1   
    72    35    36 ar  
    73    35    68 1   
    74    36    69 1   
@<TRIPOS>SUBSTRUCTURE
     1 KLI         1 TEMP              0 ****  ****    0 ROOT
