@<TRIPOS>MOLECULE
KLI
   69    74     1     0     0
SMALL
No Charge or Current Charge


@<TRIPOS>ATOM
      1 N01          0.0780    -0.6960     1.2250 na         1 KLI      -0.639200
      2 N02          4.5470    -0.4740    -0.5920 nc         1 KLI      -0.686000
      3 N03          4.1950    -1.4200     1.4410 nd         1 KLI      -0.401300
      4 N04         -3.3510     2.6060     0.1680 nh         1 KLI      -0.782400
      5 N05         -5.9350     3.8810     0.9220 n3         1 KLI      -0.718600
      6 C06         -1.3710     2.3660    -1.2950 ca         1 KLI       0.109000
      7 C07         -2.0990     2.0100    -0.1340 ca         1 KLI       0.308000
      8 C08         -1.5710     1.0280     0.7210 ca         1 KLI      -0.216000
      9 C09         -0.3550     0.3790     0.4320 ca         1 KLI       0.327000
     10 C10          0.3660     0.7680    -0.6960 ca         1 KLI      -0.199600
     11 C11         -0.1420     1.7520    -1.5690 ca         1 KLI      -0.052000
     12 C12          1.4700    -0.8290     1.3810 cd         1 KLI       0.109000
     13 C13          2.2620    -0.4700     0.2940 cc         1 KLI      -0.343000
     14 C14          1.6950     0.1620    -0.9110 c          1 KLI       0.607900
     15 C15          3.6620    -0.8030     0.3920 cc         1 KLI       0.648800
     16 C16          5.6800    -0.9300    -0.1120 cd         1 KLI       0.480300
     17 C17         -0.8960    -1.5780     1.9210 c3         1 KLI       0.272100
     18 C18         -2.0770    -2.0180     1.0550 ca         1 KLI      -0.133300
     19 C19         -3.3950    -1.7710     1.4900 ca         1 KLI      -0.086000
     20 C20         -4.4930    -2.1410     0.6940 ca         1 KLI      -0.080000
     21 C21         -4.2970    -2.7760    -0.5500 ca         1 KLI      -0.161300
     22 C22         -2.9760    -3.0310    -0.9810 ca         1 KLI      -0.100000
     23 C23         -1.8800    -2.6610    -0.1840 ca         1 KLI       0.192000
     24 C24         -5.5020    -3.1570    -1.4190 c3         1 KLI       0.358300
     25 C25         -4.4650     1.8060     0.7670 c6         1 KLI       0.195800
     26 C26         -5.8660     2.4470     0.5030 c6         1 KLI       0.158800
     27 C27         -4.8480     4.6590     0.2500 c6         1 KLI       0.158800
     28 C28         -3.4260     4.0610     0.5080 c6         1 KLI       0.195800
     29 C29         -7.2740     4.4740     0.7110 c3         1 KLI       0.152100
     30 C30          7.0170    -0.8230    -0.7910 c3         1 KLI      -0.062400
     31 C31          7.9360     0.2220    -0.1670 ca         1 KLI      -0.094300
     32 C32          8.8930    -0.1530     0.7960 ca         1 KLI      -0.093500
     33 C33          9.7330     0.8150     1.3750 ca         1 KLI      -0.111000
     34 C34          9.6180     2.1630     0.9960 ca         1 KLI      -0.102000
     35 C35          8.6630     2.5430     0.0380 ca         1 KLI      -0.111000
     36 C36          7.8230     1.5750    -0.5410 ca         1 KLI      -0.093500
     37 O37          2.2510     0.2660    -1.9980 o          1 KLI      -0.533100
     38 O38          5.5610    -1.5140     1.1070 os         1 KLI      -0.087700
     39 F39         -5.9520    -2.0950    -2.1250 f          1 KLI      -0.108333
     40 F40         -5.2140    -4.1320    -2.3120 f          1 KLI      -0.108333
     41 F41         -6.5400    -3.6070    -0.6780 f          1 KLI      -0.108333
     42 F42         -0.6310    -2.9380    -0.6260 f          1 KLI      -0.159000
     43 F43         -1.8430     3.2980    -2.1600 f          1 KLI      -0.172000
     44 H08         -2.1210     0.7650     1.6160 ha         1 KLI       0.120000
     45 H11          0.4170     2.0550    -2.4530 ha         1 KLI       0.159000
     46 H12          1.8250    -1.3580     2.2660 h4         1 KLI       0.213000
     47 H17         -0.3740    -2.4800     2.2670 h1         1 KLI       0.073200
     48 H17A        -1.2620    -1.0620     2.8190 h1         1 KLI       0.073200
     49 H19         -3.5740    -1.2800     2.4450 ha         1 KLI       0.124000
     50 H20         -5.5000    -1.9260     1.0480 ha         1 KLI       0.139000
     51 H22         -2.7860    -3.5140    -1.9360 ha         1 KLI       0.157000
     52 H25         -4.4660     0.7880     0.3500 h1         1 KLI       0.046950
     53 H25A        -4.3190     1.7170     1.8530 h1         1 KLI       0.046950
     54 H26         -6.6250     1.8560     1.0370 h1         1 KLI       0.044200
     55 H26A        -6.0900     2.3580    -0.5700 h1         1 KLI       0.044200
     56 H27         -5.0190     4.6830    -0.8360 h1         1 KLI       0.044200
     57 H27A        -4.8540     5.7020     0.5980 h1         1 KLI       0.044200
     58 H28         -3.1710     4.2040     1.5680 h1         1 KLI       0.046950
     59 H28A        -2.6950     4.6350    -0.0800 h1         1 KLI       0.046950
     60 H29         -8.0390     3.9050     1.2560 h1         1 KLI       0.033367
     61 H29A        -7.3000     5.5100     1.0730 h1         1 KLI       0.033367
     62 H29B        -7.5400     4.4740    -0.3550 h1         1 KLI       0.033367
     63 H30          7.5000    -1.8070    -0.7730 hc         1 KLI       0.084200
     64 H30A         6.8660    -0.5960    -1.8520 hc         1 KLI       0.084200
     65 H32          8.9880    -1.1940     1.0980 ha         1 KLI       0.117500
     66 H33         10.4710     0.5200     2.1170 ha         1 KLI       0.114500
     67 H34         10.2680     2.9120     1.4440 ha         1 KLI       0.113000
     68 H35          8.5720     3.5870    -0.2550 ha         1 KLI       0.114500
     69 H36          7.0840     1.8790    -1.2800 ha         1 KLI       0.117500
@<TRIPOS>BOND
     1     1     9 1   
     2     1    12 1   
     3     1    17 1   
     4     2    15 1   
     5     2    16 2   
     6     3    15 2   
     7     3    38 1   
     8     4     7 1   
     9     4    25 1   
    10     4    28 1   
    11     5    26 1   
    12     5    27 1   
    13     5    29 1   
    14     6     7 ar  
    15     6    11 ar  
    16     6    43 1   
    17     7     8 ar  
    18     8     9 ar  
    19     8    44 1   
    20     9    10 ar  
    21    10    11 ar  
    22    10    14 1   
    23    11    45 1   
    24    12    13 2   
    25    12    46 1   
    26    13    14 1   
    27    13    15 1   
    28    14    37 2   
    29    16    30 1   
    30    16    38 1   
    31    17    18 1   
    32    17    47 1   
    33    17    48 1   
    34    18    19 ar  
    35    18    23 ar  
    36    19    20 ar  
    37    19    49 1   
    38    20    21 ar  
    39    20    50 1   
    40    21    22 ar  
    41    21    24 1   
    42    22    23 ar  
    43    22    51 1   
    44    23    42 1   
    45    24    39 1   
    46    24    40 1   
    47    24    41 1   
    48    25    26 1   
    49    25    52 1   
    50    25    53 1   
    51    26    54 1   
    52    26    55 1   
    53    27    28 1   
    54    27    56 1   
    55    27    57 1   
    56    28    58 1   
    57    28    59 1   
    58    29    60 1   
    59    29    61 1   
    60    29    62 1   
    61    30    31 1   
    62    30    63 1   
    63    30    64 1   
    64    31    32 ar  
    65    31    36 ar  
    66    32    33 ar  
    67    32    65 1   
    68    33    34 ar  
    69    33    66 1   
    70    34    35 ar  
    71    34    67 1   
    72    35    36 ar  
    73    35    68 1   
    74    36    69 1   
@<TRIPOS>SUBSTRUCTURE
     1 KLI         1 TEMP              0 ****  ****    0 ROOT
