@<TRIPOS>MOLECULE
KLJ
   35    35     1     0     0
SMALL
abcg2


@<TRIPOS>ATOM
      1 C1           1.2000    -1.5410    -0.5330 c3         1 KLJ       0.012900
      2 N1          -2.7590    -0.7370     0.2720 n7         1 KLJ      -0.865300
      3 O1           5.8550     1.4340     0.6920 os         1 KLJ      -0.341100
      4 S1          -1.5360    -1.7010    -0.2580 s6         1 KLJ       1.185100
      5 C2           2.4540    -0.7630    -0.2430 ca         1 KLJ      -0.121300
      6 N2          -4.8380     2.0740    -0.3540 ns         1 KLJ      -0.384400
      7 O2          -3.9180     1.3440     1.5830 o          1 KLJ      -0.567100
      8 C3           3.0830    -0.8530     0.9980 ca         1 KLJ      -0.068000
      9 O3          -1.5390    -2.8850     0.5860 o          1 KLJ      -0.524500
     10 C4           4.2130    -0.1120     1.2870 ca         1 KLJ      -0.170000
     11 O4          -5.7380     2.8830     0.2640 oh         1 KLJ      -0.410100
     12 C5           4.7500     0.7520     0.3300 ca         1 KLJ       0.142100
     13 O5          -1.7090    -1.8460    -1.6970 o          1 KLJ      -0.524500
     14 C6           2.9970     0.1010    -1.1840 ca         1 KLJ      -0.068000
     15 C7           4.1340     0.8550    -0.9140 ca         1 KLJ      -0.170000
     16 C8          -0.0120    -0.8060     0.0380 c3         1 KLJ      -0.344400
     17 C9           6.4300     2.3280    -0.2400 c3         1 KLJ       0.148900
     18 C10         -4.0020     1.3200     0.3690 c          1 KLJ       0.601100
     19 C11         -3.0950     0.4520    -0.4890 c3         1 KLJ       0.121800
     20 H1           1.0780    -1.6640    -1.6100 hc         1 KLJ       0.064200
     21 H1A          1.2670    -2.5390    -0.0970 hc         1 KLJ       0.064200
     22 HN1         -2.7500    -0.5970     1.2780 hn         1 KLJ       0.509000
     23 H3           2.6850    -1.5200     1.7550 ha         1 KLJ       0.113500
     24 H4           4.6890    -0.1970     2.2570 ha         1 KLJ       0.123000
     25 H6           2.5340     0.1910    -2.1590 ha         1 KLJ       0.113500
     26 H7           4.5210     1.5080    -1.6840 ha         1 KLJ       0.123000
     27 H8           0.0670    -0.6800     1.1190 h1         1 KLJ       0.092200
     28 H8A         -0.1170     0.1810    -0.4150 h1         1 KLJ       0.092200
     29 H9           7.2990     2.7640     0.2450 h1         1 KLJ       0.041033
     30 H9A          6.7560     1.8160    -1.1500 h1         1 KLJ       0.041033
     31 H9B          5.7410     3.1300    -0.5170 h1         1 KLJ       0.041033
     32 H11         -2.2220     1.0630    -0.7490 h1         1 KLJ       0.069700
     33 H11A        -3.5840     0.1740    -1.4220 h1         1 KLJ       0.069700
     34 H15         -4.9890     1.9320    -1.3430 hn         1 KLJ       0.345500
     35 H16         -5.3400     3.7630     0.2870 ho         1 KLJ       0.445000
@<TRIPOS>BOND
     1     1     5 1   
     2     1    16 1   
     3     1    20 1   
     4     1    21 1   
     5     2     4 1   
     6     2    19 1   
     7     2    22 1   
     8     3    12 1   
     9     3    17 1   
    10     4     9 2   
    11     4    13 2   
    12     4    16 1   
    13     5     8 ar  
    14     5    14 ar  
    15     6    11 1   
    16     6    18 1   
    17     6    34 1   
    18     7    18 2   
    19     8    10 ar  
    20     8    23 1   
    21    10    12 ar  
    22    10    24 1   
    23    11    35 1   
    24    12    15 ar  
    25    14    15 ar  
    26    14    25 1   
    27    15    26 1   
    28    16    27 1   
    29    16    28 1   
    30    17    29 1   
    31    17    30 1   
    32    17    31 1   
    33    18    19 1   
    34    19    32 1   
    35    19    33 1   
@<TRIPOS>SUBSTRUCTURE
     1 KLJ         1 TEMP              0 ****  ****    0 ROOT
