@<TRIPOS>MOLECULE
KLJ
   35    35     1     0     0
SMALL
No Charge or Current Charge


@<TRIPOS>ATOM
      1 C1           1.2120    -1.6330    -0.4570 c3         1 KLJ       0.012900
      2 N1          -2.7500    -0.8310     0.3130 n7         1 KLJ      -0.865300
      3 O1           5.9210     1.4400     0.6270 os         1 KLJ      -0.341100
      4 S1          -1.5620    -1.8180    -0.3120 s6         1 KLJ       1.185100
      5 C2           2.4640    -0.8130    -0.1850 ca         1 KLJ      -0.121300
      6 N2          -4.7910     2.2690    -0.3720 ns         1 KLJ      -0.384400
      7 O2          -4.1850     1.3410     1.6380 o          1 KLJ      -0.567100
      8 C3           3.1810    -0.9860     1.0150 ca         1 KLJ      -0.068000
      9 O3          -1.5790    -3.0300     0.5070 o          1 KLJ      -0.524500
     10 C4           4.3350    -0.2220     1.2650 ca         1 KLJ      -0.170000
     11 O4          -5.9250     2.9900     0.1730 oh         1 KLJ      -0.410100
     12 C5           4.7830     0.7200     0.3250 ca         1 KLJ       0.142100
     13 O5          -1.8060    -1.8990    -1.7540 o          1 KLJ      -0.524500
     14 C6           2.9100     0.1340    -1.1270 ca         1 KLJ      -0.068000
     15 C7           4.0650     0.8980    -0.8770 ca         1 KLJ      -0.170000
     16 C8          -0.0590    -0.8830    -0.0000 c3         1 KLJ      -0.344400
     17 C9           6.4630     2.4280    -0.2680 c3         1 KLJ       0.148900
     18 C10         -4.0570     1.3850     0.4170 c          1 KLJ       0.601100
     19 C11         -3.0520     0.4780    -0.3580 c3         1 KLJ       0.121800
     20 H1           1.1410    -1.8620    -1.5290 hc         1 KLJ       0.064200
     21 H1A          1.2760    -2.6010     0.0590 hc         1 KLJ       0.064200
     22 HN1         -2.3810    -0.6470     1.2470 hn         1 KLJ       0.509000
     23 H3           2.8450    -1.7100     1.7540 ha         1 KLJ       0.113500
     24 H4           4.8840    -0.3610     2.1920 ha         1 KLJ       0.123000
     25 H6           2.3610     0.2790    -2.0550 ha         1 KLJ       0.113500
     26 H7           4.3830     1.6190    -1.6240 ha         1 KLJ       0.123000
     27 H8          -0.0180    -0.6900     1.0770 h1         1 KLJ       0.092200
     28 H8A         -0.1510     0.0630    -0.5420 h1         1 KLJ       0.092200
     29 H9           7.3650     2.8780     0.1640 h1         1 KLJ       0.041033
     30 H9A          6.7360     1.9760    -1.2300 h1         1 KLJ       0.041033
     31 H9B          5.7360     3.2310    -0.4480 h1         1 KLJ       0.041033
     32 H11         -2.1440     1.0790    -0.4980 h1         1 KLJ       0.069700
     33 H11A        -3.4740     0.2990    -1.3560 h1         1 KLJ       0.069700
     34 H15         -4.7620     2.1790    -1.3870 hn         1 KLJ       0.345500
     35 H16         -5.7580     3.9250    -0.0930 ho         1 KLJ       0.445000
@<TRIPOS>BOND
     1     1     5 1   
     2     1    16 1   
     3     1    20 1   
     4     1    21 1   
     5     2     4 1   
     6     2    19 1   
     7     2    22 1   
     8     3    12 1   
     9     3    17 1   
    10     4     9 2   
    11     4    13 2   
    12     4    16 1   
    13     5     8 ar  
    14     5    14 ar  
    15     6    11 1   
    16     6    18 1   
    17     6    34 1   
    18     7    18 2   
    19     8    10 ar  
    20     8    23 1   
    21    10    12 ar  
    22    10    24 1   
    23    11    35 1   
    24    12    15 ar  
    25    14    15 ar  
    26    14    25 1   
    27    15    26 1   
    28    16    27 1   
    29    16    28 1   
    30    17    29 1   
    31    17    30 1   
    32    17    31 1   
    33    18    19 1   
    34    19    32 1   
    35    19    33 1   
@<TRIPOS>SUBSTRUCTURE
     1 KLJ         1 TEMP              0 ****  ****    0 ROOT
