@<TRIPOS>MOLECULE
KLK
   32    33     1     0     0
SMALL
No Charge or Current Charge


@<TRIPOS>ATOM
      1 C10         15.0860     6.6060     1.3230 c3         1 KLK      -0.171400
      2 C14          7.3340     7.0620    -1.0630 c3         1 KLK       0.092300
      3 C1           9.6590     6.9530    -0.1200 c          1 KLK       0.638700
      4 C11         14.5700     6.7700     2.7680 c3         1 KLK      -0.062400
      5 C12         13.1660     3.5300    -1.6240 c3         1 KLK      -0.036800
      6 C2          10.9340     6.1790    -0.2000 cc         1 KLK      -0.264600
      7 C4          12.5440     4.6580    -0.8400 cc         1 KLK      -0.062300
      8 C5          13.0760     5.4860     0.1180 cd         1 KLK      -0.270600
      9 C6          12.0690     6.3940     0.5630 cd         1 KLK      -0.014300
     10 C7          12.2260     7.3290     1.7560 c3         1 KLK      -0.020100
     11 C8          13.0330     6.6900     2.9150 c3         1 KLK      -0.072400
     12 C9          14.4920     5.3960     0.5940 c          1 KLK       0.618700
     13 N13          8.6700     6.4730    -0.9490 ns         1 KLK      -0.514900
     14 N3          11.2440     5.0990    -1.0420 na         1 KLK      -0.097000
     15 O15          9.4680     7.9330     0.5840 o          1 KLK      -0.590100
     16 O16         15.1830     4.3990     0.4170 o          1 KLK      -0.553100
     17 H1          16.1800     6.5420     1.3290 hc         1 KLK       0.060700
     18 H2          14.7740     7.5070     0.7830 hc         1 KLK       0.060700
     19 H3           6.7410     6.4910    -1.7880 h1         1 KLK       0.041700
     20 H4           6.8330     7.0350    -0.0860 h1         1 KLK       0.041700
     21 H5           7.4160     8.1030    -1.4030 h1         1 KLK       0.041700
     22 H6          15.0280     6.0050     3.4090 hc         1 KLK       0.042200
     23 H7          14.9140     7.7400     3.1490 hc         1 KLK       0.042200
     24 H8          14.0790     3.8630    -2.1320 hc         1 KLK       0.058700
     25 H9          13.4270     2.6940    -0.9650 hc         1 KLK       0.058700
     26 H10         12.4800     3.1490    -2.3900 hc         1 KLK       0.058700
     27 H11         12.6680     8.2870     1.4560 hc         1 KLK       0.064200
     28 H12         11.2480     7.5690     2.1810 hc         1 KLK       0.064200
     29 H13         12.7560     7.1820     3.8560 hc         1 KLK       0.046700
     30 H14         12.7290     5.6410     3.0240 hc         1 KLK       0.046700
     31 H15          8.8820     5.6550    -1.5020 hn         1 KLK       0.307500
     32 H16         10.6170     4.6870    -1.7250 hn         1 KLK       0.346000
@<TRIPOS>BOND
     1     1     4 1   
     2     1    12 1   
     3     1    17 1   
     4     1    18 1   
     5     2    13 1   
     6     2    19 1   
     7     2    20 1   
     8     2    21 1   
     9     3     6 1   
    10     3    13 1   
    11     3    15 2   
    12     4    11 1   
    13     4    22 1   
    14     4    23 1   
    15     5     7 1   
    16     5    24 1   
    17     5    25 1   
    18     5    26 1   
    19     6     9 2   
    20     6    14 1   
    21     7     8 2   
    22     7    14 1   
    23     8     9 1   
    24     8    12 1   
    25     9    10 1   
    26    10    11 1   
    27    10    27 1   
    28    10    28 1   
    29    11    29 1   
    30    11    30 1   
    31    12    16 2   
    32    13    31 1   
    33    14    32 1   
@<TRIPOS>SUBSTRUCTURE
     1 KLK         1 TEMP              0 ****  ****    0 ROOT
