@<TRIPOS>MOLECULE
KLK
   32    33     1     0     0
SMALL
abcg2


@<TRIPOS>ATOM
      1 C10         15.0400     6.6250     1.2670 c3         1 KLK      -0.171400
      2 C14          7.4710     7.0650    -1.1280 c3         1 KLK       0.092300
      3 C1           9.5780     6.6670     0.0340 c          1 KLK       0.638700
      4 C11         14.5670     6.8080     2.7150 c3         1 KLK      -0.062400
      5 C12         13.0400     3.5180    -1.5780 c3         1 KLK      -0.036800
      6 C2          10.9210     6.0700    -0.0420 cc         1 KLK      -0.264600
      7 C4          12.4880     4.6430    -0.7810 cc         1 KLK      -0.062300
      8 C5          13.0750     5.4690     0.1760 cd         1 KLK      -0.270600
      9 C6          12.0730     6.3690     0.6510 cd         1 KLK      -0.014300
     10 C7          12.2490     7.3700     1.7500 c3         1 KLK      -0.020100
     11 C8          13.0500     6.7850     2.9200 c3         1 KLK      -0.072400
     12 C9          14.4770     5.4130     0.5690 c          1 KLK       0.618700
     13 N13          8.8190     6.5480    -1.0730 ns         1 KLK      -0.514900
     14 N3          11.2150     5.0370    -0.9090 na         1 KLK      -0.097000
     15 O15          9.1650     7.2230     1.0470 o          1 KLK      -0.590100
     16 O16         15.1790     4.4490     0.3050 o          1 KLK      -0.553100
     17 H1          16.1300     6.5610     1.2520 hc         1 KLK       0.060700
     18 H2          14.7650     7.5110     0.6880 hc         1 KLK       0.060700
     19 H3           7.0280     6.7620    -2.0720 h1         1 KLK       0.041700
     20 H4           6.8640     6.6610    -0.3190 h1         1 KLK       0.041700
     21 H5           7.4410     8.1550    -1.0670 h1         1 KLK       0.041700
     22 H6          15.0300     6.0470     3.3460 hc         1 KLK       0.042200
     23 H7          14.9620     7.7680     3.0540 hc         1 KLK       0.042200
     24 H8          13.9760     3.7970    -2.0590 hc         1 KLK       0.058700
     25 H9          13.2490     2.6530    -0.9480 hc         1 KLK       0.058700
     26 H10         12.3380     3.2090    -2.3520 hc         1 KLK       0.058700
     27 H11         12.7480     8.2720     1.3770 hc         1 KLK       0.064200
     28 H12         11.2710     7.6910     2.1000 hc         1 KLK       0.064200
     29 H13         12.8160     7.3410     3.8290 hc         1 KLK       0.046700
     30 H14         12.7090     5.7620     3.0980 hc         1 KLK       0.046700
     31 H15          9.2440     6.2840    -1.9450 hn         1 KLK       0.307500
     32 H16         10.5480     4.5730    -1.5070 hn         1 KLK       0.346000
@<TRIPOS>BOND
     1     1     4 1   
     2     1    12 1   
     3     1    17 1   
     4     1    18 1   
     5     2    13 1   
     6     2    19 1   
     7     2    20 1   
     8     2    21 1   
     9     3     6 1   
    10     3    13 1   
    11     3    15 2   
    12     4    11 1   
    13     4    22 1   
    14     4    23 1   
    15     5     7 1   
    16     5    24 1   
    17     5    25 1   
    18     5    26 1   
    19     6     9 2   
    20     6    14 1   
    21     7     8 2   
    22     7    14 1   
    23     8     9 1   
    24     8    12 1   
    25     9    10 1   
    26    10    11 1   
    27    10    27 1   
    28    10    28 1   
    29    11    29 1   
    30    11    30 1   
    31    12    16 2   
    32    13    31 1   
    33    14    32 1   
@<TRIPOS>SUBSTRUCTURE
     1 KLK         1 TEMP              0 ****  ****    0 ROOT
