@<TRIPOS>MOLECULE
KLM
   64    68     1     0     0
SMALL
bcc


@<TRIPOS>ATOM
      1 C1          10.7580    -2.2720    -0.4400 c3         1 KLM       0.150600
      2 C3          10.6100     0.0510    -0.9890 c3         1 KLM       0.150600
      3 C4           8.5940    -1.2540    -0.7450 c3         1 KLM       0.120800
      4 C5           7.6930    -0.2060    -0.0870 c3         1 KLM       0.149100
      5 C8           6.2420    -0.5820    -0.2830 c3         1 KLM       0.137400
      6 O9           5.4420     0.4840     0.1890 os         1 KLM      -0.305900
      7 C11          3.4230    -0.7690    -0.3120 ca         1 KLM      -0.169000
      8 C12          2.0350    -0.7990    -0.2940 ca         1 KLM      -0.116500
      9 C15          3.3570     1.4180     0.6650 ca         1 KLM      -0.169000
     10 C17         -1.0620     1.0820     0.1380 ca         1 KLM       0.929900
     11 C19         -1.7040     3.2340    -0.1010 ca         1 KLM       0.469200
     12 C24         -5.6630     1.9080     0.0130 c          1 KLM       0.633500
     13 O25         -6.8040     1.5230     0.0420 o          1 KLM      -0.524500
     14 C27         -3.2820     1.5010     0.0800 ca         1 KLM       0.606200
     15 C30         -4.9460    -1.1550    -0.8310 ca         1 KLM      -0.090000
     16 C31         -5.2300    -2.4970    -0.6480 ca         1 KLM      -0.084300
     17 C32         -5.3630    -3.5830    -1.6790 c5         1 KLM      -0.033100
     18 C33         -6.0920    -4.6980    -0.9090 c5         1 KLM      -0.078400
     19 C34         -5.6990    -4.4900     0.5630 c5         1 KLM      -0.035100
     20 C35         -5.4210    -3.0140     0.6320 ca         1 KLM      -0.077300
     21 C36         -5.3280    -2.1920     1.7440 ca         1 KLM      -0.111000
     22 C37         -5.0460    -0.8420     1.5680 ca         1 KLM      -0.103000
     23 N2           9.9680    -1.0630    -0.3180 n3         1 KLM      -0.736600
     24 O7           7.9840    -0.1260     1.2860 oh         1 KLM      -0.589800
     25 C10          4.0990     0.3490     0.1650 ca         1 KLM       0.132100
     26 C13          1.2900     0.2650     0.2050 ca         1 KLM       0.126600
     27 C14          1.9750     1.3790     0.6940 ca         1 KLM      -0.116500
     28 N16         -0.1020     0.1290     0.2390 nu         1 KLM      -0.730300
     29 N18         -0.7180     2.3580     0.0000 nb         1 KLM      -0.751000
     30 C20         -3.0340     2.8660    -0.0690 ca         1 KLM      -0.275000
     31 N21         -4.0860     3.7590    -0.1710 ns         1 KLM      -0.437100
     32 C22         -5.3810     3.4000    -0.1450 c          1 KLM       0.634500
     33 O23         -6.3100     4.1730    -0.2350 o          1 KLM      -0.563500
     34 N26         -4.5910     1.0570     0.1220 n          1 KLM      -0.376500
     35 N28         -2.3160     0.6220     0.1830 nb         1 KLM      -0.788000
     36 C29         -4.8600    -0.3410     0.2900 ca         1 KLM       0.038600
     37 H1          11.7520    -2.1060    -0.0230 h1         1 KLM       0.035533
     38 H2          10.2900    -3.0830     0.1180 h1         1 KLM       0.035533
     39 H3          10.8830    -2.6040    -1.4810 h1         1 KLM       0.035533
     40 H4          10.6980    -0.1010    -2.0740 h1         1 KLM       0.035533
     41 H5          10.0570     0.9760    -0.8240 h1         1 KLM       0.035533
     42 H6          11.6120     0.1960    -0.5860 h1         1 KLM       0.035533
     43 H7           8.2740    -2.2480    -0.4180 h1         1 KLM       0.043700
     44 H8           8.4770    -1.2210    -1.8390 h1         1 KLM       0.043700
     45 H9           7.8570     0.7660    -0.5770 h1         1 KLM       0.046700
     46 H10          6.0540    -0.7670    -1.3480 h1         1 KLM       0.037700
     47 H11          6.0190    -1.5070     0.2620 h1         1 KLM       0.037700
     48 H12          3.9480    -1.6270    -0.7110 ha         1 KLM       0.142000
     49 H13          1.5280    -1.6750    -0.6790 ha         1 KLM       0.143500
     50 H14          3.8730     2.2890     1.0500 ha         1 KLM       0.142000
     51 H15         -1.4290     4.2780    -0.2160 h4         1 KLM       0.030100
     52 H17         -5.8980    -3.2630    -2.5740 hc         1 KLM       0.054200
     53 H18         -4.3710    -3.9140    -2.0010 hc         1 KLM       0.054200
     54 H19         -7.1700    -4.5680    -1.0180 hc         1 KLM       0.047700
     55 H20         -5.8440    -5.6940    -1.2740 hc         1 KLM       0.047700
     56 H21         -6.4730    -4.8140     1.2610 hc         1 KLM       0.054200
     57 H22         -4.7920    -5.0500     0.8120 hc         1 KLM       0.054200
     58 H23         -5.4780    -2.5850     2.7420 ha         1 KLM       0.137000
     59 H24         -4.9740    -0.1810     2.4220 ha         1 KLM       0.141000
     60 H26          8.9270    -0.3490     1.3490 ho         1 KLM       0.430000
     61 H27          1.4380     2.2210     1.1020 ha         1 KLM       0.143500
     62 H28         -0.4560    -0.8160     0.2250 hn         1 KLM       0.458800
     63 H29         -3.8760     4.7450    -0.2710 hn         1 KLM       0.336500
     64 H16         -4.7970    -0.7400    -1.8200 ha         1 KLM       0.142000
@<TRIPOS>BOND
     1     1    23 1   
     2     1    37 1   
     3     1    38 1   
     4     1    39 1   
     5     2    23 1   
     6     2    40 1   
     7     2    41 1   
     8     2    42 1   
     9     3     4 1   
    10     3    23 1   
    11     3    43 1   
    12     3    44 1   
    13     4     5 1   
    14     4    24 1   
    15     4    45 1   
    16     5     6 1   
    17     5    46 1   
    18     5    47 1   
    19     6    25 1   
    20     7     8 ar  
    21     7    25 ar  
    22     7    48 1   
    23     8    26 ar  
    24     8    49 1   
    25     9    25 ar  
    26     9    27 ar  
    27     9    50 1   
    28    10    28 1   
    29    10    29 ar  
    30    10    35 ar  
    31    11    29 ar  
    32    11    30 ar  
    33    11    51 1   
    34    12    13 2   
    35    12    32 1   
    36    12    34 1   
    37    14    30 ar  
    38    14    34 1   
    39    14    35 ar  
    40    15    16 ar  
    41    15    36 ar  
    42    15    64 1   
    43    16    17 1   
    44    16    20 ar  
    45    17    18 1   
    46    17    52 1   
    47    17    53 1   
    48    18    19 1   
    49    18    54 1   
    50    18    55 1   
    51    19    20 1   
    52    19    56 1   
    53    19    57 1   
    54    20    21 ar  
    55    21    22 ar  
    56    21    58 1   
    57    22    36 ar  
    58    22    59 1   
    59    24    60 1   
    60    26    27 ar  
    61    26    28 1   
    62    27    61 1   
    63    28    62 1   
    64    30    31 1   
    65    31    32 1   
    66    31    63 1   
    67    32    33 2   
    68    34    36 1   
@<TRIPOS>SUBSTRUCTURE
     1 KLM         1 TEMP              0 ****  ****    0 ROOT
