@<TRIPOS>MOLECULE
KLM
   64    68     1     0     0
SMALL
No Charge or Current Charge


@<TRIPOS>ATOM
      1 C1          10.8680    -2.4750    -0.6210 c3         1 KLM       0.150600
      2 C3          10.7450    -0.0340    -0.8250 c3         1 KLM       0.150600
      3 C4           8.6570    -1.3930    -0.8160 c3         1 KLM       0.120800
      4 C5           7.7050    -0.3170    -0.2340 c3         1 KLM       0.172300
      5 C8           6.2090    -0.7120    -0.3520 c3         1 KLM       0.160600
      6 O9           5.3960     0.4000     0.0770 os         1 KLM      -0.329100
      7 C11          3.2990    -0.7960    -0.3380 ca         1 KLM      -0.151000
      8 C12          1.8910    -0.7880    -0.3140 ca         1 KLM      -0.098500
      9 C15          3.3160     1.4790     0.5140 ca         1 KLM      -0.151000
     10 C17         -1.2300     1.2540     0.0440 ca         1 KLM       0.403900
     11 C19         -1.9230     3.4080    -0.2930 ca         1 KLM       0.140900
     12 C24         -5.9410     2.0790     0.3880 c          1 KLM       0.491000
     13 O25         -7.1020     1.7000     0.5310 o          1 KLM      -0.449000
     14 C27         -3.5000     1.6280     0.1340 ca         1 KLM       0.277900
     15 C30         -4.5250    -1.1650    -0.4910 ca         1 KLM      -0.072000
     16 C31         -4.7890    -2.5400    -0.3960 ca         1 KLM      -0.084300
     17 C32         -4.2730    -3.6220    -1.3070 c5         1 KLM      -0.033100
     18 C33         -5.2700    -4.7930    -0.9610 c5         1 KLM      -0.078400
     19 C34         -5.7370    -4.5390     0.5230 c5         1 KLM      -0.035100
     20 C35         -5.5940    -3.0420     0.6030 ca         1 KLM      -0.077300
     21 C36         -6.1760    -2.1900     1.5520 ca         1 KLM      -0.093000
     22 C37         -5.9250    -0.8070     1.4710 ca         1 KLM      -0.085000
     23 N2          10.0670    -1.2620    -0.3350 n3         1 KLM      -0.736600
     24 O7           8.1050    -0.1310     1.1320 oh         1 KLM      -0.652000
     25 C10          4.0180     0.3460     0.0760 ca         1 KLM       0.132100
     26 C13          1.1830     0.3530     0.1090 ca         1 KLM       0.265000
     27 C14          1.9090     1.4840     0.5350 ca         1 KLM      -0.098500
     28 N16         -0.2190     0.3050     0.1250 nu         1 KLM      -0.923900
     29 N18         -0.9050     2.5310    -0.2290 nb         1 KLM      -0.225000
     30 C20         -3.2550     2.9990    -0.1000 ca         1 KLM      -0.144400
     31 N21         -4.3210     3.9240    -0.0950 ns         1 KLM      -0.370100
     32 C22         -5.6420     3.6320     0.1490 c          1 KLM       0.492000
     33 O23         -6.5040     4.5060     0.1670 o          1 KLM      -0.488000
     34 N26         -4.8510     1.1560     0.3870 n          1 KLM      -0.309500
     35 N28         -2.4650     0.7650     0.2350 nb         1 KLM      -0.262000
     36 C29         -5.0880    -0.2760     0.4580 ca         1 KLM       0.038600
     37 H1          11.8760    -2.3840    -0.1950 h1         1 KLM       0.035533
     38 H2          10.3970    -3.3640    -0.1810 h1         1 KLM       0.035533
     39 H3          10.9640    -2.6360    -1.7030 h1         1 KLM       0.035533
     40 H4          10.8200    -0.0400    -1.9210 h1         1 KLM       0.035533
     41 H5          10.2010     0.8710    -0.5240 h1         1 KLM       0.035533
     42 H6          11.7600     0.0380    -0.4130 h1         1 KLM       0.035533
     43 H7           8.2660    -2.3770    -0.5210 h1         1 KLM       0.043700
     44 H8           8.6170    -1.3520    -1.9140 h1         1 KLM       0.043700
     45 H9           7.8630     0.6140    -0.7950 h1         1 KLM       0.046700
     46 H10          5.9890    -0.9610    -1.3980 h1         1 KLM       0.037700
     47 H11          6.0150    -1.5990     0.2640 h1         1 KLM       0.037700
     48 H12          3.8090    -1.6930    -0.6780 ha         1 KLM       0.124000
     49 H13          1.3490    -1.6730    -0.6370 ha         1 KLM       0.125500
     50 H14          3.8650     2.3570     0.8460 ha         1 KLM       0.124000
     51 H15         -1.6660     4.4490    -0.4820 h4         1 KLM       0.030100
     52 H17         -4.3070    -3.3470    -2.3670 hc         1 KLM       0.054200
     53 H18         -3.2380    -3.8880    -1.0640 hc         1 KLM       0.054200
     54 H19         -6.1350    -4.7550    -1.6340 hc         1 KLM       0.047700
     55 H20         -4.8160    -5.7820    -1.0930 hc         1 KLM       0.047700
     56 H21         -6.7610    -4.8850     0.7000 hc         1 KLM       0.054200
     57 H22         -5.0830    -5.0420     1.2440 hc         1 KLM       0.054200
     58 H23         -6.8100    -2.5910     2.3390 ha         1 KLM       0.119000
     59 H24         -6.3650    -0.1480     2.2150 ha         1 KLM       0.123000
     60 H26          9.0330    -0.4770     1.1150 ho         1 KLM       0.469000
     61 H27          1.3940     2.3650     0.9040 ha         1 KLM       0.125500
     62 H28         -0.5960    -0.6430     0.1290 hn         1 KLM       0.514000
     63 H29         -4.1030     4.9030    -0.2580 hn         1 KLM       0.336500
     64 H16         -3.9100    -0.7950    -1.3070 ha         1 KLM       0.124000
@<TRIPOS>BOND
     1     1    23 1   
     2     1    37 1   
     3     1    38 1   
     4     1    39 1   
     5     2    23 1   
     6     2    40 1   
     7     2    41 1   
     8     2    42 1   
     9     3     4 1   
    10     3    23 1   
    11     3    43 1   
    12     3    44 1   
    13     4     5 1   
    14     4    24 1   
    15     4    45 1   
    16     5     6 1   
    17     5    46 1   
    18     5    47 1   
    19     6    25 1   
    20     7     8 ar  
    21     7    25 ar  
    22     7    48 1   
    23     8    26 ar  
    24     8    49 1   
    25     9    25 ar  
    26     9    27 ar  
    27     9    50 1   
    28    10    28 1   
    29    10    29 ar  
    30    10    35 ar  
    31    11    29 ar  
    32    11    30 ar  
    33    11    51 1   
    34    12    13 2   
    35    12    32 1   
    36    12    34 1   
    37    14    30 ar  
    38    14    34 1   
    39    14    35 ar  
    40    15    16 ar  
    41    15    36 ar  
    42    15    64 1   
    43    16    17 1   
    44    16    20 ar  
    45    17    18 1   
    46    17    52 1   
    47    17    53 1   
    48    18    19 1   
    49    18    54 1   
    50    18    55 1   
    51    19    20 1   
    52    19    56 1   
    53    19    57 1   
    54    20    21 ar  
    55    21    22 ar  
    56    21    58 1   
    57    22    36 ar  
    58    22    59 1   
    59    24    60 1   
    60    26    27 ar  
    61    26    28 1   
    62    27    61 1   
    63    28    62 1   
    64    30    31 1   
    65    31    32 1   
    66    31    63 1   
    67    32    33 2   
    68    34    36 1   
@<TRIPOS>SUBSTRUCTURE
     1 KLM         1 TEMP              0 ****  ****    0 ROOT
