@<TRIPOS>MOLECULE
KLN
   64    68     1     0     0
SMALL
No Charge or Current Charge


@<TRIPOS>ATOM
      1 N1          -1.6710    -2.3020    -0.9060 na         1 KLN      -0.167500
      2 C1          -1.6930    -3.6480    -0.6020 cc         1 KLN       0.392400
      3 N2          -0.4620    -4.1350    -0.5360 nd         1 KLN      -0.676000
      4 C2           0.3750    -3.0830    -0.8450 cd         1 KLN       0.216900
      5 C3          -0.3520    -1.9490    -1.0990 cc         1 KLN      -0.226000
      6 C4          -2.8480    -1.4410    -1.1400 c3         1 KLN       0.053600
      7 C5          -3.5760    -0.7270     0.0560 c5         1 KLN       0.441300
      8 O1          -2.6560     0.1340     0.7640 os         1 KLN      -0.450000
      9 C6          -2.1670    -0.5550     1.9500 c5         1 KLN       0.142300
     10 C7          -2.9760    -1.8800     2.0050 c5         1 KLN       0.132600
     11 O2          -4.0250    -1.6950     1.0300 os         1 KLN      -0.456000
     12 C8          -4.8020     0.1300    -0.3660 ca         1 KLN      -0.089300
     13 C9          -5.5970     0.8240     0.5950 ca         1 KLN       0.166000
     14 C10         -6.7020     1.5960     0.1960 ca         1 KLN      -0.107000
     15 C11         -7.0470     1.7010    -1.1540 ca         1 KLN       0.137000
     16 C12         -6.2860     1.0330    -2.1180 ca         1 KLN      -0.106000
     17 C13         -5.1790     0.2590    -1.7330 ca         1 KLN      -0.084000
     18 Cl1         -8.4320     2.6700    -1.6390 cl         1 KLN      -0.182000
     19 C14         -0.6210    -0.7280     1.9700 c3         1 KLN       0.155600
     20 O3           0.0010     0.3500     1.2420 os         1 KLN      -0.334100
     21 C15          1.3560     0.3770     0.9850 ca         1 KLN       0.115100
     22 C16          1.8580     1.4420     0.2210 ca         1 KLN      -0.144500
     23 C17          3.2290     1.5140    -0.0850 ca         1 KLN      -0.114500
     24 C18          4.1210     0.5210     0.3660 ca         1 KLN       0.243000
     25 C19          3.6110    -0.5460     1.1370 ca         1 KLN      -0.114500
     26 C20          2.2400    -0.6220     1.4460 ca         1 KLN      -0.144500
     27 N3           5.4980     0.6100     0.0480 nh         1 KLN      -0.777400
     28 C21          6.5410     0.0070     0.9370 c6         1 KLN       0.170800
     29 C22          7.9250     0.6970     0.7670 c6         1 KLN       0.094500
     30 N4           8.3400     0.7440    -0.6640 n          1 KLN      -0.416800
     31 C23          7.3200     1.4180    -1.5130 c6         1 KLN       0.094500
     32 C24          5.9290     0.7380    -1.3810 c6         1 KLN       0.170800
     33 C25          9.3890    -0.0280    -1.2150 c          1 KLN       0.609100
     34 O4           9.5240    -0.1330    -2.4270 o          1 KLN      -0.605100
     35 C26         10.3960    -0.6940    -0.2750 c3         1 KLN      -0.176100
     36 Cl2         -5.2780     0.7830     2.3330 cl         1 KLN      -0.187000
     37 H1          -2.6150    -4.1940    -0.4340 h5         1 KLN       0.060100
     38 H3          -0.0330    -0.9520    -1.3760 h4         1 KLN       0.165000
     39 H4C1        -2.5330    -0.6590    -1.8410 h1         1 KLN       0.078200
     40 H4C2        -3.5950    -2.0540    -1.6580 h1         1 KLN       0.078200
     41 H2           1.4510    -3.2000    -0.8740 h4         1 KLN       0.038100
     42 H6          -2.4290     0.0690     2.8150 h1         1 KLN       0.080700
     43 H7C1        -2.3700    -2.7540     1.7410 h1         1 KLN       0.069700
     44 H7C2        -3.4180    -2.0580     2.9940 h1         1 KLN       0.069700
     45 H141        -0.2760    -0.7470     3.0110 h1         1 KLN       0.049700
     46 H142        -0.3650    -1.6930     1.5180 h1         1 KLN       0.049700
     47 H13         -4.6280    -0.2350    -2.5270 ha         1 KLN       0.118000
     48 H10         -7.2950     2.1160     0.9430 ha         1 KLN       0.147000
     49 H12         -6.5540     1.1150    -3.1690 ha         1 KLN       0.137000
     50 H20          1.8870    -1.4610     2.0380 ha         1 KLN       0.122500
     51 H16          1.1810     2.2140    -0.1350 ha         1 KLN       0.122500
     52 H19          4.2740    -1.3300     1.4910 ha         1 KLN       0.115500
     53 H17          3.6010     2.3510    -0.6680 ha         1 KLN       0.115500
     54 H211         6.2400     0.0940     1.9910 h1         1 KLN       0.045200
     55 H212         6.6490    -1.0640     0.7110 h1         1 KLN       0.045200
     56 H241         5.9790    -0.2610    -1.8400 h1         1 KLN       0.045200
     57 H242         5.2000     1.3220    -1.9610 h1         1 KLN       0.045200
     58 H221         7.8530     1.7270     1.1440 h1         1 KLN       0.061950
     59 H222         8.6620     0.1830     1.3960 h1         1 KLN       0.061950
     60 H231         7.2340     2.4680    -1.1970 h1         1 KLN       0.061950
     61 H232         7.6230     1.4250    -2.5690 h1         1 KLN       0.061950
     62 H261         9.8720    -1.4250     0.3490 hc         1 KLN       0.060367
     63 H262        11.2240    -1.1670    -0.8170 hc         1 KLN       0.060367
     64 H263        10.7570     0.0400     0.4530 hc         1 KLN       0.060367
@<TRIPOS>BOND
     1     1     2 1   
     2     1     5 1   
     3     1     6 1   
     4     2     3 2   
     5     2    37 1   
     6     3     4 1   
     7     4     5 2   
     8     4    41 1   
     9     5    38 1   
    10     6     7 1   
    11     6    39 1   
    12     6    40 1   
    13     7     8 1   
    14     7    11 1   
    15     7    12 1   
    16     8     9 1   
    17     9    10 1   
    18     9    19 1   
    19     9    42 1   
    20    10    11 1   
    21    10    43 1   
    22    10    44 1   
    23    12    13 ar  
    24    12    17 ar  
    25    13    14 ar  
    26    13    36 1   
    27    14    15 ar  
    28    14    48 1   
    29    15    16 ar  
    30    15    18 1   
    31    16    17 ar  
    32    16    49 1   
    33    17    47 1   
    34    19    20 1   
    35    19    45 1   
    36    19    46 1   
    37    20    21 1   
    38    21    22 ar  
    39    21    26 ar  
    40    22    23 ar  
    41    22    51 1   
    42    23    24 ar  
    43    23    53 1   
    44    24    25 ar  
    45    24    27 1   
    46    25    26 ar  
    47    25    52 1   
    48    26    50 1   
    49    27    28 1   
    50    27    32 1   
    51    28    29 1   
    52    28    54 1   
    53    28    55 1   
    54    29    30 1   
    55    29    58 1   
    56    29    59 1   
    57    30    31 1   
    58    30    33 1   
    59    31    32 1   
    60    31    60 1   
    61    31    61 1   
    62    32    56 1   
    63    32    57 1   
    64    33    34 2   
    65    33    35 1   
    66    35    62 1   
    67    35    63 1   
    68    35    64 1   
@<TRIPOS>SUBSTRUCTURE
     1 KLN         1 TEMP              0 ****  ****    0 ROOT
