@<TRIPOS>MOLECULE
KLN
   64    68     1     0     0
SMALL
abcg2


@<TRIPOS>ATOM
      1 N1          -2.4100    -2.9390    -0.9150 na         1 KLN      -0.167500
      2 C1          -2.5840    -4.1090    -0.2600 cc         1 KLN       0.392400
      3 N2          -1.4630    -4.7680    -0.1320 nd         1 KLN      -0.676000
      4 C2          -0.5130    -3.9890    -0.7340 cd         1 KLN       0.216900
      5 C3          -1.0810    -2.8500    -1.2260 cc         1 KLN      -0.226000
      6 C4          -3.4290    -1.9660    -1.2070 c3         1 KLN       0.053600
      7 C5          -3.6010    -0.9530    -0.0570 c5         1 KLN       0.441300
      8 O1          -2.4090    -0.2280     0.0860 os         1 KLN      -0.450000
      9 C6          -1.9040    -0.3570     1.4060 c5         1 KLN       0.142300
     10 C7          -2.6680    -1.5560     1.9600 c5         1 KLN       0.132600
     11 O2          -3.8110    -1.6500     1.1340 os         1 KLN      -0.456000
     12 C8          -4.7740    -0.0050    -0.3260 ca         1 KLN      -0.089300
     13 C9          -5.3680     0.7940     0.6540 ca         1 KLN       0.166000
     14 C10         -6.4100     1.6630     0.3630 ca         1 KLN      -0.107000
     15 C11         -6.8770     1.7560    -0.9350 ca         1 KLN       0.137000
     16 C12         -6.3140     0.9930    -1.9400 ca         1 KLN      -0.106000
     17 C13         -5.2780     0.1330    -1.6190 ca         1 KLN      -0.084000
     18 CL1         -8.1740     2.8380    -1.2920 cl         1 KLN      -0.182000
     19 C14         -0.4130    -0.5800     1.3950 c3         1 KLN       0.155600
     20 O3           0.1930     0.5660     0.8400 os         1 KLN      -0.334100
     21 C15          1.5410     0.5820     0.7140 ca         1 KLN       0.115100
     22 C16          2.0950     1.7160     0.1160 ca         1 KLN      -0.144500
     23 C17          3.4600     1.8310    -0.0410 ca         1 KLN      -0.114500
     24 C18          4.3350     0.8150     0.3740 ca         1 KLN       0.243000
     25 C19          3.7670    -0.3130     0.9600 ca         1 KLN      -0.114500
     26 C20          2.3900    -0.4280     1.1390 ca         1 KLN      -0.144500
     27 N3           5.7190     0.9890     0.2180 nh         1 KLN      -0.777400
     28 C21          6.5820     0.0460     0.8980 c6         1 KLN       0.170800
     29 C22          8.0130     0.5620     0.9160 c6         1 KLN       0.094500
     30 N4           8.4710     0.8480    -0.4260 n          1 KLN      -0.416800
     31 C23          7.6060     1.7800    -1.1220 c6         1 KLN       0.094500
     32 C24          6.1790     1.2640    -1.1370 c6         1 KLN       0.170800
     33 C25          9.5340     0.2760    -1.0340 c          1 KLN       0.609100
     34 O4           9.8440     0.5430    -2.1890 o          1 KLN      -0.605100
     35 C26         10.3450    -0.7120    -0.2250 c3         1 KLN      -0.176100
     36 CL2         -4.8620     0.7940     2.3100 cl         1 KLN      -0.187000
     37 H1          -3.5530    -4.4310     0.0900 h5         1 KLN       0.060100
     38 H3          -0.6690    -2.0140    -1.7650 h4         1 KLN       0.165000
     39 H4C1        -3.1550    -1.4630    -2.1330 h1         1 KLN       0.078200
     40 H4C2        -4.3700    -2.4900    -1.3790 h1         1 KLN       0.078200
     41 H2           0.5230    -4.2860    -0.7860 h4         1 KLN       0.038100
     42 H6          -2.1260     0.5500     1.9760 h1         1 KLN       0.080700
     43 H7C1        -2.0750    -2.4780     1.9110 h1         1 KLN       0.069700
     44 H7C2        -2.9830    -1.4070     2.9930 h1         1 KLN       0.069700
     45 H141        -0.0810    -0.7440     2.4280 h1         1 KLN       0.049700
     46 H142        -0.1650    -1.4780     0.8170 h1         1 KLN       0.049700
     47 H13         -4.8640    -0.4450    -2.4310 ha         1 KLN       0.118000
     48 H10         -6.8460     2.2660     1.1480 ha         1 KLN       0.147000
     49 H12         -6.6670     1.0590    -2.9590 ha         1 KLN       0.137000
     50 H20          2.0130    -1.3280     1.6070 ha         1 KLN       0.122500
     51 H16          1.4470     2.5190    -0.2120 ha         1 KLN       0.122500
     52 H19          4.3830    -1.1360     1.2940 ha         1 KLN       0.115500
     53 H17          3.8560     2.7390    -0.4790 ha         1 KLN       0.115500
     54 H211         6.2500    -0.0700     1.9310 h1         1 KLN       0.045200
     55 H212         6.5640    -0.9520     0.4320 h1         1 KLN       0.045200
     56 H241         6.1240     0.3610    -1.7640 h1         1 KLN       0.045200
     57 H242         5.5430     2.0180    -1.5980 h1         1 KLN       0.045200
     58 H221         8.0570     1.4770     1.5140 h1         1 KLN       0.061950
     59 H222         8.6500    -0.1720     1.4000 h1         1 KLN       0.061950
     60 H231         7.6370     2.7480    -0.6110 h1         1 KLN       0.061950
     61 H232         7.9590     1.9250    -2.1390 h1         1 KLN       0.061950
     62 H261         9.7510    -1.5770     0.0700 hc         1 KLN       0.060367
     63 H262        11.1790    -1.0600    -0.8280 hc         1 KLN       0.060367
     64 H263        10.7430    -0.2620     0.6850 hc         1 KLN       0.060367
@<TRIPOS>BOND
     1     1     2 1   
     2     1     5 1   
     3     1     6 1   
     4     2     3 2   
     5     2    37 1   
     6     3     4 1   
     7     4     5 2   
     8     4    41 1   
     9     5    38 1   
    10     6     7 1   
    11     6    39 1   
    12     6    40 1   
    13     7     8 1   
    14     7    11 1   
    15     7    12 1   
    16     8     9 1   
    17     9    10 1   
    18     9    19 1   
    19     9    42 1   
    20    10    11 1   
    21    10    43 1   
    22    10    44 1   
    23    12    13 ar  
    24    12    17 ar  
    25    13    14 ar  
    26    13    36 1   
    27    14    15 ar  
    28    14    48 1   
    29    15    16 ar  
    30    15    18 1   
    31    16    17 ar  
    32    16    49 1   
    33    17    47 1   
    34    19    20 1   
    35    19    45 1   
    36    19    46 1   
    37    20    21 1   
    38    21    22 ar  
    39    21    26 ar  
    40    22    23 ar  
    41    22    51 1   
    42    23    24 ar  
    43    23    53 1   
    44    24    25 ar  
    45    24    27 1   
    46    25    26 ar  
    47    25    52 1   
    48    26    50 1   
    49    27    28 1   
    50    27    32 1   
    51    28    29 1   
    52    28    54 1   
    53    28    55 1   
    54    29    30 1   
    55    29    58 1   
    56    29    59 1   
    57    30    31 1   
    58    30    33 1   
    59    31    32 1   
    60    31    60 1   
    61    31    61 1   
    62    32    56 1   
    63    32    57 1   
    64    33    34 2   
    65    33    35 1   
    66    35    62 1   
    67    35    63 1   
    68    35    64 1   
@<TRIPOS>SUBSTRUCTURE
     1 KLN         1 TEMP              0 ****  ****    0 ROOT
