@<TRIPOS>MOLECULE
KLO
   25    26     1     0     0
SMALL
No Charge or Current Charge


@<TRIPOS>ATOM
      1 C10          0.0370    -7.2780   -17.9700 ca         1 KLO      -0.078300
      2 C13         -1.8380    -5.2830   -17.2910 ca         1 KLO      -0.110000
      3 C15         -1.3390    -7.5790   -17.9260 ca         1 KLO      -0.101500
      4 C02          0.9400   -10.3370   -16.6750 ca         1 KLO       0.391300
      5 N03          1.3560   -10.9820   -15.5760 nb         1 KLO      -0.294000
      6 C04          2.3500   -10.4020   -14.8840 ca         1 KLO       0.391300
      7 O05          2.7780   -11.0450   -13.7730 oh         1 KLO      -0.617300
      8 N06          2.9660    -9.2460   -15.1790 nb         1 KLO      -0.286000
      9 C07          2.5430    -8.6030   -16.2840 ca         1 KLO       0.162900
     10 C08          1.5110    -9.1170   -17.0880 ca         1 KLO      -0.241300
     11 C09          1.0490    -8.3580   -18.3280 c3         1 KLO       0.045200
     12 C11          0.4670    -5.9700   -17.6680 ca         1 KLO      -0.101500
     13 C12         -0.4670    -4.9760   -17.3300 ca         1 KLO      -0.110000
     14 C14         -2.2730    -6.5850   -17.5890 ca         1 KLO      -0.110000
     15 H1          -2.5610    -4.5130   -17.0290 ha         1 KLO       0.112000
     16 H2          -1.6830    -8.5860   -18.1520 ha         1 KLO       0.110500
     17 H4           3.0390    -7.6640   -16.5240 h4         1 KLO       0.026100
     18 H6           0.6210    -9.0430   -19.0710 hc         1 KLO       0.056700
     19 H7           1.9150    -7.9050   -18.8280 hc         1 KLO       0.056700
     20 H8           1.5270    -5.7250   -17.6930 ha         1 KLO       0.110500
     21 H9          -0.1290    -3.9680   -17.0990 ha         1 KLO       0.112000
     22 H10         -3.3340    -6.8240   -17.5570 ha         1 KLO       0.112000
     23 H11         -0.2850   -11.7480   -16.8940 ho         1 KLO       0.493000
     24 H3           3.4950   -10.4900   -13.3980 ho         1 KLO       0.494000
     25 O01         -0.0640   -10.9220   -17.3740 oh         1 KLO      -0.626300
@<TRIPOS>BOND
     1     1     3 ar  
     2     1    11 1   
     3     1    12 ar  
     4     2    13 ar  
     5     2    14 ar  
     6     2    15 1   
     7     3    14 ar  
     8     3    16 1   
     9     4     5 ar  
    10     4    10 ar  
    11     4    25 1   
    12     5     6 ar  
    13     6     7 1   
    14     6     8 ar  
    15     7    24 1   
    16     8     9 ar  
    17     9    10 ar  
    18     9    17 1   
    19    10    11 1   
    20    11    18 1   
    21    11    19 1   
    22    12    13 ar  
    23    12    20 1   
    24    13    21 1   
    25    14    22 1   
    26    23    25 1   
@<TRIPOS>SUBSTRUCTURE
     1 KLO         1 TEMP              0 ****  ****    0 ROOT
