@<TRIPOS>MOLECULE
KLO
   25    26     1     0     0
SMALL
abcg2


@<TRIPOS>ATOM
      1 C10         -0.0310    -7.3700   -17.9760 ca         1 KLO      -0.078300
      2 C13         -1.9760    -5.4560   -17.3560 ca         1 KLO      -0.110000
      3 C15         -1.3090    -7.4560   -18.5170 ca         1 KLO      -0.101500
      4 C02          0.8470    -9.9670   -16.3240 ca         1 KLO       0.391300
      5 N03          1.3270   -10.5520   -15.2460 nb         1 KLO      -0.294000
      6 C04          2.5760   -10.2580   -14.9190 ca         1 KLO       0.391300
      7 O05          3.0170   -10.8590   -13.8220 oh         1 KLO      -0.617300
      8 N06          3.3900    -9.4490   -15.5670 nb         1 KLO      -0.286000
      9 C07          2.8780    -8.8700   -16.6550 ca         1 KLO       0.162900
     10 C08          1.5940    -9.0730   -17.1080 ca         1 KLO      -0.241300
     11 C09          1.0290    -8.3920   -18.3170 c3         1 KLO       0.045200
     12 C11          0.2610    -6.3120   -17.1180 ca         1 KLO      -0.101500
     13 C12         -0.7010    -5.3610   -16.8090 ca         1 KLO      -0.110000
     14 C14         -2.2770    -6.5060   -18.2110 ca         1 KLO      -0.110000
     15 H1          -2.7280    -4.7150   -17.1150 ha         1 KLO       0.112000
     16 H2          -1.5530    -8.2740   -19.1840 ha         1 KLO       0.110500
     17 H4           3.5380    -8.2000   -17.1970 h4         1 KLO       0.026100
     18 H6           0.6160    -9.1280   -19.0110 hc         1 KLO       0.056700
     19 H7           1.8480    -7.8990   -18.8480 hc         1 KLO       0.056700
     20 H8           1.2510    -6.2290   -16.6840 ha         1 KLO       0.110500
     21 H9          -0.4560    -4.5450   -16.1420 ha         1 KLO       0.112000
     22 H10         -3.2670    -6.5900   -18.6410 ha         1 KLO       0.112000
     23 H11         -0.7860   -10.8680   -16.0660 ho         1 KLO       0.493000
     24 H3           3.9290   -10.5850   -13.6580 ho         1 KLO       0.494000
     25 O01         -0.3960   -10.2370   -16.6880 oh         1 KLO      -0.626300
@<TRIPOS>BOND
     1     1     3 ar  
     2     1    11 1   
     3     1    12 ar  
     4     2    13 ar  
     5     2    14 ar  
     6     2    15 1   
     7     3    14 ar  
     8     3    16 1   
     9     4     5 ar  
    10     4    10 ar  
    11     4    25 1   
    12     5     6 ar  
    13     6     7 1   
    14     6     8 ar  
    15     7    24 1   
    16     8     9 ar  
    17     9    10 ar  
    18     9    17 1   
    19    10    11 1   
    20    11    18 1   
    21    11    19 1   
    22    12    13 ar  
    23    12    20 1   
    24    13    21 1   
    25    14    22 1   
    26    23    25 1   
@<TRIPOS>SUBSTRUCTURE
     1 KLO         1 TEMP              0 ****  ****    0 ROOT
