@<TRIPOS>MOLECULE
KLP
   51    54     1     0     0
SMALL
abcg2


@<TRIPOS>ATOM
      1 C1           5.9450     1.0020     1.8370 c3         1 KLP      -0.376100
      2 C6           3.6750     0.2620    -0.4570 ca         1 KLP       0.180000
      3 C7           2.4550     0.9190    -0.5930 ca         1 KLP       0.006000
      4 C8           1.2880     0.2220    -0.3580 ca         1 KLP      -0.149800
      5 C11         -0.0590    -1.5500     0.1360 cc         1 KLP       0.243500
      6 N13         -2.1130    -2.2450     0.3510 nd         1 KLP      -0.484000
      7 C16         -4.6500    -0.9920     0.0820 c3         1 KLP       0.275100
      8 C17         -5.7700     0.0070    -0.0260 ca         1 KLP      -0.125300
      9 C18         -6.3580     0.2620    -1.2720 ca         1 KLP      -0.050800
     10 C19         -5.9000    -0.4490    -2.5160 c3         1 KLP      -0.054300
     11 C21         -7.8180     1.8770    -0.2270 ca         1 KLP      -0.090000
     12 C23         -6.1910     0.7020     1.1150 ca         1 KLP      -0.050800
     13 C24         -5.5540     0.4630     2.4560 c3         1 KLP      -0.054300
     14 C27          3.7190    -1.0960    -0.0970 ca         1 KLP       0.138100
     15 O28          4.9390    -1.6300     0.0060 os         1 KLP      -0.359100
     16 S2           5.4900     1.9950     0.4350 s6         1 KLP       1.189100
     17 O3           4.4070     2.8740     0.8430 o          1 KLP      -0.531000
     18 O4           6.6940     2.5610    -0.1510 o          1 KLP      -0.531000
     19 N5           4.8770     0.9620    -0.7150 nu         1 KLP      -0.867100
     20 C9          -0.1110     0.6620    -0.4330 cd         1 KLP       0.008800
     21 C10         -0.8830    -0.4040    -0.1340 cc         1 KLP      -0.216000
     22 N12         -0.7680    -2.5890     0.4100 nd         1 KLP      -0.227000
     23 C14         -2.2130    -0.9650     0.0350 cc         1 KLP       0.602900
     24 N15         -3.3690    -0.3300    -0.0960 nu         1 KLP      -0.899100
     25 C20         -7.3860     1.1970    -1.3550 ca         1 KLP      -0.120000
     26 C22         -7.2190     1.6330     0.9980 ca         1 KLP      -0.120000
     27 C25          1.3360    -1.1470    -0.0060 ca         1 KLP      -0.045500
     28 C26          2.5320    -1.8130     0.1200 ca         1 KLP      -0.159000
     29 C29          5.0690    -3.0010     0.3490 c3         1 KLP       0.149900
     30 H1           5.0640     0.4960     2.2260 h1         1 KLP       0.102700
     31 H2           6.7000     0.2790     1.5400 h1         1 KLP       0.102700
     32 H3           6.3480     1.6710     2.5950 h1         1 KLP       0.102700
     33 H4           2.4400     1.9570    -0.8950 ha         1 KLP       0.149000
     34 H5          -4.6600    -1.4900     1.0540 h1         1 KLP       0.067200
     35 H6          -4.7560    -1.7850    -0.6610 h1         1 KLP       0.067200
     36 H7          -6.0880    -1.5230    -2.4610 hc         1 KLP       0.046867
     37 H8          -6.4210    -0.0680    -3.3930 hc         1 KLP       0.046867
     38 H9          -4.8300    -0.3200    -2.6870 hc         1 KLP       0.046867
     39 H10         -8.6180     2.6020    -0.3040 ha         1 KLP       0.116000
     40 H11         -4.4730     0.6080     2.4250 hc         1 KLP       0.046867
     41 H12         -5.9560     1.1460     3.2030 hc         1 KLP       0.046867
     42 H13         -5.7290    -0.5530     2.8130 hc         1 KLP       0.046867
     43 H14          5.6090     0.4220    -1.1670 hn         1 KLP       0.499000
     44 H15         -0.4210     1.6670    -0.6900 ha         1 KLP       0.205000
     45 H16         -3.3600     0.6440    -0.3510 hn         1 KLP       0.503000
     46 H17         -7.8500     1.3950    -2.3140 ha         1 KLP       0.115000
     47 H18         -7.5490     2.1740     1.8770 ha         1 KLP       0.115000
     48 H19          2.5510    -2.8600     0.3880 ha         1 KLP       0.141000
     49 H20          6.1360    -3.2030     0.3880 h1         1 KLP       0.051033
     50 H21          4.6310    -3.2150     1.3260 h1         1 KLP       0.051033
     51 H22          4.6110    -3.6470    -0.4020 h1         1 KLP       0.051033
@<TRIPOS>BOND
     1     1    16 1   
     2     1    30 1   
     3     1    31 1   
     4     1    32 1   
     5     2     3 ar  
     6     2    14 ar  
     7     2    19 1   
     8     3     4 ar  
     9     3    33 1   
    10     4    20 1   
    11     4    27 ar  
    12     5    21 1   
    13     5    22 2   
    14     5    27 1   
    15     6    22 1   
    16     6    23 2   
    17     7     8 1   
    18     7    24 1   
    19     7    34 1   
    20     7    35 1   
    21     8     9 ar  
    22     8    12 ar  
    23     9    10 1   
    24     9    25 ar  
    25    10    36 1   
    26    10    37 1   
    27    10    38 1   
    28    11    25 ar  
    29    11    26 ar  
    30    11    39 1   
    31    12    13 1   
    32    12    26 ar  
    33    13    40 1   
    34    13    41 1   
    35    13    42 1   
    36    14    15 1   
    37    14    28 ar  
    38    15    29 1   
    39    16    17 2   
    40    16    18 2   
    41    16    19 1   
    42    19    43 1   
    43    20    21 2   
    44    20    44 1   
    45    21    23 1   
    46    23    24 1   
    47    24    45 1   
    48    25    46 1   
    49    26    47 1   
    50    27    28 ar  
    51    28    48 1   
    52    29    49 1   
    53    29    50 1   
    54    29    51 1   
@<TRIPOS>SUBSTRUCTURE
     1 KLP         1 TEMP              0 ****  ****    0 ROOT
