@<TRIPOS>MOLECULE
KLP
   51    54     1     0     0
SMALL
No Charge or Current Charge


@<TRIPOS>ATOM
      1 C1           4.9650     2.0600     1.8960 c3         1 KLP      -0.376100
      2 C6           3.6850     0.0570    -0.3590 ca         1 KLP       0.180000
      3 C7           2.4290     0.7150    -0.3940 ca         1 KLP       0.006000
      4 C8           1.2670    -0.0520    -0.2440 ca         1 KLP      -0.149800
      5 C11         -0.0310    -1.8940     0.0480 cc         1 KLP       0.243500
      6 N13         -2.0600    -2.6640     0.2320 nd         1 KLP      -0.484000
      7 C16         -4.6200    -1.0970     0.1350 c3         1 KLP       0.275100
      8 C17         -5.6110     0.0670     0.0250 ca         1 KLP      -0.125300
      9 C18         -6.1230     0.4580    -1.2420 ca         1 KLP      -0.050800
     10 C19         -5.7070    -0.2520    -2.5300 c3         1 KLP      -0.054300
     11 C21         -7.4440     2.2110    -0.1770 ca         1 KLP      -0.090000
     12 C23         -6.0220     0.7730     1.1880 ca         1 KLP      -0.050800
     13 C24         -5.4940     0.4110     2.5760 c3         1 KLP      -0.054300
     14 C27          3.7440    -1.3630    -0.1850 ca         1 KLP       0.138100
     15 O28          4.9950    -1.9640    -0.1570 os         1 KLP      -0.359100
     16 S2           5.3120     2.2300     0.1580 s6         1 KLP       1.189100
     17 O3           4.4170     3.2310    -0.4260 o          1 KLP      -0.531000
     18 O4           6.7600     2.3250    -0.0270 o          1 KLP      -0.531000
     19 N5           4.8910     0.7660    -0.5020 nu         1 KLP      -0.867100
     20 C9          -0.1540     0.3620    -0.2400 cd         1 KLP       0.008800
     21 C10         -0.8430    -0.8120    -0.0580 cc         1 KLP      -0.216000
     22 N12         -0.6780    -3.0360     0.2220 nd         1 KLP      -0.227000
     23 C14         -2.1130    -1.3390     0.0630 cc         1 KLP       0.602900
     24 N15         -3.2500    -0.5940     0.0130 nu         1 KLP      -0.899100
     25 C20         -7.0370     1.5250    -1.3290 ca         1 KLP      -0.120000
     26 C22         -6.9370     1.8370     1.0740 ca         1 KLP      -0.120000
     27 C25          1.3370    -1.4390    -0.0680 ca         1 KLP      -0.045500
     28 C26          2.5550    -2.1230    -0.0350 ca         1 KLP      -0.159000
     29 C29          5.1650    -3.3840     0.0160 c3         1 KLP       0.149900
     30 H1           3.8920     1.8710     2.0040 h1         1 KLP       0.102700
     31 H2           5.5570     1.2200     2.2720 h1         1 KLP       0.102700
     32 H3           5.2530     2.9980     2.3810 h1         1 KLP       0.102700
     33 H4           2.3520     1.7870    -0.5450 ha         1 KLP       0.149000
     34 H5          -4.7480    -1.6190     1.0930 h1         1 KLP       0.067200
     35 H6          -4.8200    -1.8440    -0.6450 h1         1 KLP       0.067200
     36 H7          -6.0920    -1.2780    -2.5570 hc         1 KLP       0.046867
     37 H8          -6.0880     0.2630    -3.4200 hc         1 KLP       0.046867
     38 H9          -4.6160    -0.2950    -2.6280 hc         1 KLP       0.046867
     39 H10         -8.1500     3.0340    -0.2540 ha         1 KLP       0.116000
     40 H11         -4.3980     0.3820     2.5920 hc         1 KLP       0.046867
     41 H12         -5.8070     1.1390     3.3340 hc         1 KLP       0.046867
     42 H13         -5.8650    -0.5710     2.8950 hc         1 KLP       0.046867
     43 H14          5.7320     0.2060    -0.4250 hn         1 KLP       0.499000
     44 H15         -0.5640     1.3630    -0.3530 ha         1 KLP       0.205000
     45 H16         -3.1130     0.4040    -0.1220 hn         1 KLP       0.503000
     46 H17         -7.4360     1.8280    -2.2940 ha         1 KLP       0.115000
     47 H18         -7.2590     2.3800     1.9600 ha         1 KLP       0.115000
     48 H19          2.5630    -3.2000     0.1020 ha         1 KLP       0.141000
     49 H20          6.2310    -3.6430     0.0060 h1         1 KLP       0.051033
     50 H21          4.7450    -3.7150     0.9740 h1         1 KLP       0.051033
     51 H22          4.6740    -3.9380    -0.7950 h1         1 KLP       0.051033
@<TRIPOS>BOND
     1     1    16 1   
     2     1    30 1   
     3     1    31 1   
     4     1    32 1   
     5     2     3 ar  
     6     2    14 ar  
     7     2    19 1   
     8     3     4 ar  
     9     3    33 1   
    10     4    20 1   
    11     4    27 ar  
    12     5    21 1   
    13     5    22 2   
    14     5    27 1   
    15     6    22 1   
    16     6    23 2   
    17     7     8 1   
    18     7    24 1   
    19     7    34 1   
    20     7    35 1   
    21     8     9 ar  
    22     8    12 ar  
    23     9    10 1   
    24     9    25 ar  
    25    10    36 1   
    26    10    37 1   
    27    10    38 1   
    28    11    25 ar  
    29    11    26 ar  
    30    11    39 1   
    31    12    13 1   
    32    12    26 ar  
    33    13    40 1   
    34    13    41 1   
    35    13    42 1   
    36    14    15 1   
    37    14    28 ar  
    38    15    29 1   
    39    16    17 2   
    40    16    18 2   
    41    16    19 1   
    42    19    43 1   
    43    20    21 2   
    44    20    44 1   
    45    21    23 1   
    46    23    24 1   
    47    24    45 1   
    48    25    46 1   
    49    26    47 1   
    50    27    28 ar  
    51    28    48 1   
    52    29    49 1   
    53    29    50 1   
    54    29    51 1   
@<TRIPOS>SUBSTRUCTURE
     1 KLP         1 TEMP              0 ****  ****    0 ROOT
