@<TRIPOS>MOLECULE
KLQ
   50    54     1     0     0
SMALL
abcg2


@<TRIPOS>ATOM
      1 CAH          6.3020    -0.8090    -0.9880 ca         1 KLQ      -0.223500
      2 CAI          6.5990    -0.5510     1.4050 ca         1 KLQ      -0.223500
      3 CAJ         -1.1010     1.3910    -0.3490 cc         1 KLQ       0.124000
      4 CAK          3.7240     1.7040     0.2720 c3         1 KLQ       0.173300
      5 CAL         -7.1710     0.5360     1.2000 c5         1 KLQ      -0.119400
      6 CAM         -6.5640    -0.8870     1.2400 c5         1 KLQ      -0.107400
      7 CAN         -7.0580    -0.3290    -1.0260 c5         1 KLQ      -0.123400
      8 CAO         -3.4600     1.4700    -0.8160 c6         1 KLQ       0.192800
      9 CAR          1.3080     1.6270    -0.0300 c          1 KLQ       0.637300
     10 CAS         -3.6440    -1.3120    -0.5050 c          1 KLQ       0.596200
     11 CAT          6.9470    -1.1160     0.1950 ca         1 KLQ       0.237000
     12 CAU          5.2730     0.1070    -0.9170 ca         1 KLQ       0.243500
     13 CAV          5.5560     0.3550     1.3990 ca         1 KLQ       0.243500
     14 CAW         -1.1630    -1.3370    -0.1980 cc         1 KLQ       0.067900
     15 CAX          0.1010     0.7600    -0.1330 cd         1 KLQ      -0.368400
     16 CAY          4.8620     0.7260     0.2570 ca         1 KLQ      -0.214300
     17 CAZ         -2.3170    -0.6380    -0.4050 cd         1 KLQ      -0.061200
     18 CBA          0.1260    -0.6590    -0.0420 c          1 KLQ       0.545500
     19 CBB         -7.0180     0.9830    -0.2600 c5         1 KLQ       0.171300
     20 CBC         -6.0620    -1.1290    -0.1950 c5         1 KLQ       0.103700
     21 CBD         -4.6390     0.8920    -0.0710 c6         1 KLQ       0.338700
     22 FAE          7.9470    -1.9990     0.1650 f          1 KLQ      -0.163000
     23 FAF          4.6290     0.4180    -2.0460 f          1 KLQ      -0.160500
     24 FAG          5.2010     0.9010     2.5650 f          1 KLQ      -0.160500
     25 NAP          2.4650     0.9930     0.1880 ns         1 KLQ      -0.499900
     26 NBE         -4.7380    -0.5280    -0.3810 n          1 KLQ      -0.443800
     27 NBF         -2.2500     0.7390    -0.4720 na         1 KLQ      -0.446200
     28 OAA          1.2280     2.8460    -0.1470 o          1 KLQ      -0.644100
     29 OAC          1.1210    -1.3790     0.1600 o          1 KLQ      -0.620100
     30 OAD         -1.1050    -2.6550    -0.0960 oh         1 KLQ      -0.475100
     31 OAQ         -5.7520     1.5960    -0.5180 os         1 KLQ      -0.460000
     32 H1           6.5850    -1.2670    -1.9260 ha         1 KLQ       0.156500
     33 H2           7.1160    -0.8060     2.3200 ha         1 KLQ       0.156500
     34 H3          -1.1510     2.4670    -0.4330 h4         1 KLQ       0.236000
     35 H4           3.7640     2.3170     1.1740 h1         1 KLQ       0.066200
     36 H5           3.8160     2.3930    -0.5700 h1         1 KLQ       0.066200
     37 H6          -8.2320     0.5150     1.4500 hc         1 KLQ       0.059700
     38 H7          -6.6960     1.2290     1.8960 hc         1 KLQ       0.059700
     39 H8          -5.7730    -1.0020     1.9820 hc         1 KLQ       0.060700
     40 H9          -7.3300    -1.6280     1.4720 hc         1 KLQ       0.060700
     41 H10         -8.0490    -0.7840    -0.9650 hc         1 KLQ       0.070200
     42 H11         -6.7830    -0.2330    -2.0770 hc         1 KLQ       0.070200
     43 H12         -3.6340     1.4010    -1.8910 h1         1 KLQ       0.087200
     44 H13         -3.3220     2.5150    -0.5460 h1         1 KLQ       0.087200
     45 H14         -7.7610     1.7170    -0.5660 h1         1 KLQ       0.093700
     46 H15         -6.0010    -2.1800    -0.4570 h1         1 KLQ       0.106700
     47 H16         -4.5060     1.0220     1.0140 h2         1 KLQ       0.053700
     48 H17          2.4410    -0.0150     0.2950 hn         1 KLQ       0.357500
     49 H18         -0.1700    -2.8680     0.0820 ho         1 KLQ       0.499000
     50 OAB         -3.7060    -2.5180    -0.6640 o          1 KLQ      -0.510000
@<TRIPOS>BOND
     1     1    11 ar  
     2     1    12 ar  
     3     1    32 1   
     4     2    11 ar  
     5     2    13 ar  
     6     2    33 1   
     7     3    15 2   
     8     3    27 1   
     9     3    34 1   
    10     4    16 1   
    11     4    25 1   
    12     4    35 1   
    13     4    36 1   
    14     5     6 1   
    15     5    19 1   
    16     5    37 1   
    17     5    38 1   
    18     6    20 1   
    19     6    39 1   
    20     6    40 1   
    21     7    19 1   
    22     7    20 1   
    23     7    41 1   
    24     7    42 1   
    25     8    21 1   
    26     8    27 1   
    27     8    43 1   
    28     8    44 1   
    29     9    15 1   
    30     9    25 1   
    31     9    28 2   
    32    10    17 1   
    33    10    26 1   
    34    10    50 2   
    35    11    22 1   
    36    12    16 ar  
    37    12    23 1   
    38    13    16 ar  
    39    13    24 1   
    40    14    17 2   
    41    14    18 1   
    42    14    30 1   
    43    15    18 1   
    44    17    27 1   
    45    18    29 2   
    46    19    31 1   
    47    19    45 1   
    48    20    26 1   
    49    20    46 1   
    50    21    26 1   
    51    21    31 1   
    52    21    47 1   
    53    25    48 1   
    54    30    49 1   
@<TRIPOS>SUBSTRUCTURE
     1 KLQ         1 TEMP              0 ****  ****    0 ROOT
