@<TRIPOS>MOLECULE
KLQ
   50    54     1     0     0
SMALL
No Charge or Current Charge


@<TRIPOS>ATOM
      1 CAH          6.5790    -0.8820    -0.8380 ca         1 KLQ      -0.223500
      2 CAI          6.3910    -0.6910     1.5750 ca         1 KLQ      -0.223500
      3 CAJ         -1.0390     1.6130    -0.4150 cc         1 KLQ       0.124000
      4 CAK          3.8740     1.7190    -0.0340 c3         1 KLQ       0.173300
      5 CAL         -7.2630     0.3530     1.3130 c5         1 KLQ      -0.119400
      6 CAM         -6.6600    -1.0900     1.1780 c5         1 KLQ      -0.107400
      7 CAN         -7.1670    -0.2800    -1.0410 c5         1 KLQ      -0.123400
      8 CAO         -3.5030     1.5770    -0.7140 c6         1 KLQ       0.192800
      9 CAR          1.3770     1.7560    -0.2340 c          1 KLQ       0.637300
     10 CAS         -3.6570    -1.3230    -0.3290 c          1 KLQ       0.596200
     11 CAT          6.9850    -1.2650     0.4450 ca         1 KLQ       0.237000
     12 CAU          5.5740     0.0830    -0.9910 ca         1 KLQ       0.243500
     13 CAV          5.3860     0.2740     1.4180 ca         1 KLQ       0.243500
     14 CAW         -1.1280    -1.2270    -0.1770 cc         1 KLQ       0.067900
     15 CAX          0.1480     0.9210    -0.2620 cd         1 KLQ      -0.368400
     16 CAY          4.9660     0.6730     0.1340 ca         1 KLQ      -0.214300
     17 CAZ         -2.3400    -0.5650    -0.3130 cd         1 KLQ      -0.061200
     18 CBA          0.1750    -0.5410    -0.1430 c          1 KLQ       0.545500
     19 CBB         -7.1820     0.9580    -0.1240 c5         1 KLQ       0.171300
     20 CBC         -6.1580    -1.1840    -0.2970 c5         1 KLQ       0.103700
     21 CBD         -4.6910     0.9200     0.0190 c6         1 KLQ       0.338700
     22 FAE          7.9520    -2.1940     0.5950 f          1 KLQ      -0.163000
     23 FAF          5.1920     0.4370    -2.2380 f          1 KLQ      -0.160500
     24 FAG          4.8200     0.8140     2.5200 f          1 KLQ      -0.160500
     25 NAP          2.5610     1.0900    -0.0860 ns         1 KLQ      -0.499900
     26 NBE         -4.8190    -0.5130    -0.3400 n          1 KLQ      -0.443800
     27 NBF         -2.2270     0.8500    -0.4570 na         1 KLQ      -0.446200
     28 OAA          1.3520     2.9740    -0.3350 o          1 KLQ      -0.644100
     29 OAC          1.2070    -1.1970    -0.0150 o          1 KLQ      -0.620100
     30 OAD         -0.9890    -2.5730    -0.0380 oh         1 KLQ      -0.475100
     31 OAQ         -5.9100     1.6270    -0.3080 os         1 KLQ      -0.460000
     32 H1           7.0410    -1.3310    -1.7120 ha         1 KLQ       0.156500
     33 H2           6.7070    -0.9920     2.5690 ha         1 KLQ       0.156500
     34 H3          -1.1200     2.6950    -0.5200 h4         1 KLQ       0.236000
     35 H4           3.8960     2.4310     0.8020 h1         1 KLQ       0.066200
     36 H5           4.0330     2.2910    -0.9580 h1         1 KLQ       0.066200
     37 H6          -8.3040     0.3030     1.6520 hc         1 KLQ       0.059700
     38 H7          -6.7280     0.9640     2.0500 hc         1 KLQ       0.059700
     39 H8          -5.8630    -1.2830     1.9060 hc         1 KLQ       0.060700
     40 H9          -7.4350    -1.8430     1.3630 hc         1 KLQ       0.060700
     41 H10         -8.1580    -0.7460    -1.1010 hc         1 KLQ       0.070200
     42 H11         -6.8530    -0.0460    -2.0650 hc         1 KLQ       0.070200
     43 H12         -3.7060     1.5820    -1.7930 h1         1 KLQ       0.087200
     44 H13         -3.4230     2.6210    -0.3820 h1         1 KLQ       0.087200
     45 H14         -8.0000     1.6570    -0.3500 h1         1 KLQ       0.093700
     46 H15         -6.1450    -2.2130    -0.6870 h1         1 KLQ       0.106700
     47 H16         -4.5180     0.9740     1.1040 h2         1 KLQ       0.053700
     48 H17          2.4930     0.0790    -0.0100 hn         1 KLQ       0.357500
     49 H18         -0.0160    -2.7220     0.0410 ho         1 KLQ       0.499000
     50 OAB         -3.7520    -2.5450    -0.3390 o          1 KLQ      -0.510000
@<TRIPOS>BOND
     1     1    11 ar  
     2     1    12 ar  
     3     1    32 1   
     4     2    11 ar  
     5     2    13 ar  
     6     2    33 1   
     7     3    15 2   
     8     3    27 1   
     9     3    34 1   
    10     4    16 1   
    11     4    25 1   
    12     4    35 1   
    13     4    36 1   
    14     5     6 1   
    15     5    19 1   
    16     5    37 1   
    17     5    38 1   
    18     6    20 1   
    19     6    39 1   
    20     6    40 1   
    21     7    19 1   
    22     7    20 1   
    23     7    41 1   
    24     7    42 1   
    25     8    21 1   
    26     8    27 1   
    27     8    43 1   
    28     8    44 1   
    29     9    15 1   
    30     9    25 1   
    31     9    28 2   
    32    10    17 1   
    33    10    26 1   
    34    10    50 2   
    35    11    22 1   
    36    12    16 ar  
    37    12    23 1   
    38    13    16 ar  
    39    13    24 1   
    40    14    17 2   
    41    14    18 1   
    42    14    30 1   
    43    15    18 1   
    44    17    27 1   
    45    18    29 2   
    46    19    31 1   
    47    19    45 1   
    48    20    26 1   
    49    20    46 1   
    50    21    26 1   
    51    21    31 1   
    52    21    47 1   
    53    25    48 1   
    54    30    49 1   
@<TRIPOS>SUBSTRUCTURE
     1 KLQ         1 TEMP              0 ****  ****    0 ROOT
