@<TRIPOS>MOLECULE
KLR
   49    50     1     0     0
SMALL
No Charge or Current Charge


@<TRIPOS>ATOM
      1 N1           8.2570     0.1870    22.8020 ns         1 KLR      -0.495900
      2 N3           8.3730    -2.7540    27.5940 n1         1 KLR      -0.468000
      3 C4           8.8100     0.3050    21.5390 c          1 KLR       0.593100
      4 C5           8.6660     0.8510    24.0400 c3         1 KLR       0.135400
      5 C6           8.4890     2.3850    23.9210 c3         1 KLR      -0.103100
      6 C7          10.1340     0.4930    24.3810 c3         1 KLR      -0.103100
      7 C8           7.7440     0.3140    25.1590 c3         1 KLR      -0.103100
      8 C10          7.5380     0.2120    18.1820 ca         1 KLR       0.359900
      9 C13          6.0390     0.6320    20.0380 ca         1 KLR      -0.056000
     10 C15          9.3540    -2.9110    22.2250 ca         1 KLR      -0.170000
     11 C17          8.9130    -4.3730    24.1250 ca         1 KLR      -0.132300
     12 C20          9.1110    -3.4790    27.0590 c1         1 KLR       0.302900
     13 C21          7.5300    -4.2040    23.9190 ca         1 KLR      -0.062000
     14 C22          7.0660    -3.3860    22.8750 ca         1 KLR      -0.170000
     15 N            7.4880    -1.8670    21.0490 nu         1 KLR      -0.966200
     16 C3           8.1920    -0.6760    20.4710 c3         1 KLR       0.183800
     17 C9           7.2310     0.0630    19.5500 ca         1 KLR      -0.157300
     18 C12          5.2090     1.3140    19.1340 ca         1 KLR      -0.166000
     19 C11          5.5920     1.4080    17.7860 ca         1 KLR       0.344900
     20 N2           6.7380     0.8700    17.3090 nb         1 KLR      -0.662000
     21 O            9.7030     1.0990    21.2680 o          1 KLR      -0.612100
     22 C14          7.9750    -2.7310    22.0320 ca         1 KLR       0.293000
     23 C16          9.8230    -3.7290    23.2670 ca         1 KLR      -0.062000
     24 C19         10.0560    -4.4030    26.4170 c3         1 KLR      -0.017300
     25 H1           7.5550    -0.5420    22.8660 hn         1 KLR       0.330500
     26 H2           8.7020     2.8760    24.8780 hc         1 KLR       0.045589
     27 H3           9.1660     2.8120    23.1730 hc         1 KLR       0.045589
     28 H4           7.4610     2.6370    23.6330 hc         1 KLR       0.045589
     29 H5          10.4190     0.9090    25.3560 hc         1 KLR       0.045589
     30 H6          10.2700    -0.5940    24.4250 hc         1 KLR       0.045589
     31 H7          10.8310     0.8930    23.6360 hc         1 KLR       0.045589
     32 H8           8.0000     0.7620    26.1280 hc         1 KLR       0.045589
     33 H9           6.6930     0.5460    24.9470 hc         1 KLR       0.045589
     34 H10          7.8390    -0.7750    25.2550 hc         1 KLR       0.045589
     35 H11          8.4540    -0.2080    17.7690 h4         1 KLR       0.024100
     36 H12          5.7630     0.5520    21.0880 ha         1 KLR       0.125000
     37 H13         10.0700    -2.4130    21.5780 ha         1 KLR       0.119000
     38 H14          6.8130    -4.6950    24.5740 ha         1 KLR       0.113000
     39 H15          5.9980    -3.2480    22.7360 ha         1 KLR       0.119000
     40 H16          6.4860    -1.9380    20.8570 hn         1 KLR       0.476000
     41 H17          9.0460    -1.0300    19.8770 h1         1 KLR       0.076700
     42 H18          4.2790     1.7670    19.4670 ha         1 KLR       0.126000
     43 H19          4.9650     1.9330    17.0660 h4         1 KLR       0.022100
     44 H20         10.8940    -3.8540    23.4110 ha         1 KLR       0.113000
     45 H21          8.6150    -5.8520    25.6870 hc         1 KLR       0.054200
     46 H22         10.1750    -5.9390    24.9000 hc         1 KLR       0.054200
     47 H23         10.4530    -5.0790    27.1830 hc         1 KLR       0.070700
     48 H24         10.9040    -3.8260    26.0310 hc         1 KLR       0.070700
     49 C18          9.4240    -5.2340    25.2770 c3         1 KLR      -0.014100
@<TRIPOS>BOND
     1     1     3 1   
     2     1     4 1   
     3     1    25 1   
     4     2    12 3   
     5     3    16 1   
     6     3    21 2   
     7     4     5 1   
     8     4     6 1   
     9     4     7 1   
    10     5    26 1   
    11     5    27 1   
    12     5    28 1   
    13     6    29 1   
    14     6    30 1   
    15     6    31 1   
    16     7    32 1   
    17     7    33 1   
    18     7    34 1   
    19     8    17 ar  
    20     8    20 ar  
    21     8    35 1   
    22     9    17 ar  
    23     9    18 ar  
    24     9    36 1   
    25    10    22 ar  
    26    10    23 ar  
    27    10    37 1   
    28    11    13 ar  
    29    11    23 ar  
    30    11    49 1   
    31    12    24 1   
    32    13    14 ar  
    33    13    38 1   
    34    14    22 ar  
    35    14    39 1   
    36    15    16 1   
    37    15    22 1   
    38    15    40 1   
    39    16    17 1   
    40    16    41 1   
    41    18    19 ar  
    42    18    42 1   
    43    19    20 ar  
    44    19    43 1   
    45    23    44 1   
    46    24    47 1   
    47    24    48 1   
    48    24    49 1   
    49    45    49 1   
    50    46    49 1   
@<TRIPOS>SUBSTRUCTURE
     1 KLR         1 TEMP              0 ****  ****    0 ROOT
