@<TRIPOS>MOLECULE
KLR
   49    50     1     0     0
SMALL
abcg2


@<TRIPOS>ATOM
      1 N1           8.2910     0.6450    22.9190 ns         1 KLR      -0.495900
      2 N3           7.5940    -4.9110    27.4380 n1         1 KLR      -0.468000
      3 C4           8.7950     0.4020    21.7070 c          1 KLR       0.593100
      4 C5           8.7660     1.6350    23.9070 c3         1 KLR       0.135400
      5 C6           8.6700     3.0480    23.3210 c3         1 KLR      -0.103100
      6 C7          10.2060     1.3070    24.3190 c3         1 KLR      -0.103100
      7 C8           7.8380     1.5110    25.1160 c3         1 KLR      -0.103100
      8 C10          7.3890    -0.3470    18.5230 ca         1 KLR       0.359900
      9 C13          6.1310     0.7670    20.2160 ca         1 KLR      -0.056000
     10 C15          9.2590    -2.6990    22.7050 ca         1 KLR      -0.170000
     11 C17          9.0090    -4.7810    23.9350 ca         1 KLR      -0.132300
     12 C20          8.5870    -5.1710    26.9160 c1         1 KLR       0.302900
     13 C21          7.6360    -4.7240    23.6820 ca         1 KLR      -0.062000
     14 C22          7.0780    -3.6830    22.9600 ca         1 KLR      -0.170000
     15 N            7.2860    -1.5980    21.7670 nu         1 KLR      -0.966200
     16 C3           8.0690    -0.7140    20.9200 c3         1 KLR       0.183800
     17 C9           7.1810    -0.0830    19.8740 ca         1 KLR      -0.157300
     18 C12          5.3440     1.3020    19.2070 ca         1 KLR      -0.166000
     19 C11          5.6370     0.9750    17.8880 ca         1 KLR       0.344900
     20 N2           6.6410     0.1650    17.5430 nb         1 KLR      -0.662000
     21 O            9.7390     0.9920    21.1810 o          1 KLR      -0.612100
     22 C14          7.8820    -2.6490    22.4580 ca         1 KLR       0.293000
     23 C16          9.8020    -3.7520    23.4330 ca         1 KLR      -0.062000
     24 C19          9.8300    -5.5080    26.2350 c3         1 KLR      -0.017300
     25 H1           7.5380     0.0290    23.1950 hn         1 KLR       0.330500
     26 H2           8.9760     3.7770    24.0720 hc         1 KLR       0.045589
     27 H3           9.3140     3.1520    22.4500 hc         1 KLR       0.045589
     28 H4           7.6420     3.2660    23.0260 hc         1 KLR       0.045589
     29 H5          10.5430     2.0160    25.0760 hc         1 KLR       0.045589
     30 H6          10.2590     0.3010    24.7380 hc         1 KLR       0.045589
     31 H7          10.8780     1.3660    23.4650 hc         1 KLR       0.045589
     32 H8           8.1420     2.2160    25.8890 hc         1 KLR       0.045589
     33 H9           6.8060     1.7310    24.8350 hc         1 KLR       0.045589
     34 H10          7.8800     0.5030    25.5350 hc         1 KLR       0.045589
     35 H11          8.1990    -1.0050    18.2240 h4         1 KLR       0.024100
     36 H12          5.9360     1.0100    21.2530 ha         1 KLR       0.125000
     37 H13          9.9160    -1.9250    22.3340 ha         1 KLR       0.119000
     38 H14          6.9930    -5.5130    24.0540 ha         1 KLR       0.113000
     39 H15          6.0110    -3.6610    22.7720 ha         1 KLR       0.119000
     40 H16          6.3620    -1.8010    21.4190 hn         1 KLR       0.476000
     41 H17          8.8640    -1.2650    20.4070 h1         1 KLR       0.076700
     42 H18          4.5210     1.9660    19.4340 ha         1 KLR       0.126000
     43 H19          5.0410     1.3810    17.0770 h4         1 KLR       0.022100
     44 H20         10.8720    -3.7680    23.6080 ha         1 KLR       0.113000
     45 H21          8.9690    -6.7770    24.7130 hc         1 KLR       0.054200
     46 H22         10.5830    -6.1750    24.3570 hc         1 KLR       0.054200
     47 H23         10.2990    -6.3320    26.7760 hc         1 KLR       0.070700
     48 H24         10.4960    -4.6450    26.3050 hc         1 KLR       0.070700
     49 C18          9.6070    -5.8930    24.7550 c3         1 KLR      -0.014100
@<TRIPOS>BOND
     1     1     3 1   
     2     1     4 1   
     3     1    25 1   
     4     2    12 3   
     5     3    16 1   
     6     3    21 2   
     7     4     5 1   
     8     4     6 1   
     9     4     7 1   
    10     5    26 1   
    11     5    27 1   
    12     5    28 1   
    13     6    29 1   
    14     6    30 1   
    15     6    31 1   
    16     7    32 1   
    17     7    33 1   
    18     7    34 1   
    19     8    17 ar  
    20     8    20 ar  
    21     8    35 1   
    22     9    17 ar  
    23     9    18 ar  
    24     9    36 1   
    25    10    22 ar  
    26    10    23 ar  
    27    10    37 1   
    28    11    13 ar  
    29    11    23 ar  
    30    11    49 1   
    31    12    24 1   
    32    13    14 ar  
    33    13    38 1   
    34    14    22 ar  
    35    14    39 1   
    36    15    16 1   
    37    15    22 1   
    38    15    40 1   
    39    16    17 1   
    40    16    41 1   
    41    18    19 ar  
    42    18    42 1   
    43    19    20 ar  
    44    19    43 1   
    45    23    44 1   
    46    24    47 1   
    47    24    48 1   
    48    24    49 1   
    49    45    49 1   
    50    46    49 1   
@<TRIPOS>SUBSTRUCTURE
     1 KLR         1 TEMP              0 ****  ****    0 ROOT
