@<TRIPOS>MOLECULE
KLS
   26    26     1     0     0
SMALL
bcc


@<TRIPOS>ATOM
      1 CAM          3.9580    -1.9570     0.2080 c3         1 KLS       0.111300
      2 NAL          2.7470    -1.2550     0.5560 ns         1 KLS      -0.599900
      3 CAK          2.3680    -0.1370    -0.0940 c          1 KLS       0.804100
      4 OAJ          3.0250     0.3690    -0.9850 o          1 KLS      -0.581100
      5 NAN          1.1460     0.3560     0.3410 ns         1 KLS      -0.535400
      6 CAB          0.5860     1.5730    -0.0110 c2         1 KLS       0.707800
      7 NAA          1.3050     2.5830    -0.2890 n2         1 KLS      -0.813100
      8 NAC         -0.7920     1.5880     0.0570 nu         1 KLS      -0.811600
      9 CAD         -1.6850     0.5170    -0.0310 ca         1 KLS       0.164600
     10 CAE         -2.8840     0.5920     0.6790 ca         1 KLS      -0.176500
     11 CAF         -3.8190    -0.4270     0.5870 ca         1 KLS      -0.099500
     12 CAG         -3.5670    -1.5460    -0.1960 ca         1 KLS      -0.155000
     13 CAH         -2.3750    -1.6220    -0.9040 ca         1 KLS      -0.099500
     14 CAI         -1.4430    -0.5960    -0.8390 ca         1 KLS      -0.176500
     15 HAM1         4.0660    -2.7990     0.8850 h1         1 KLS       0.040367
     16 HAM2         3.9300    -2.3420    -0.8120 h1         1 KLS       0.040367
     17 HAM3         4.8400    -1.3230     0.3100 h1         1 KLS       0.040367
     18 HAL          2.1880    -1.6200     1.3080 hn         1 KLS       0.311500
     19 HAN          0.5930    -0.2350     0.9440 hn         1 KLS       0.320500
     20 HAA          0.7260     3.3570    -0.5950 hn         1 KLS       0.388400
     21 HAC         -1.2010     2.4950     0.2210 hn         1 KLS       0.440800
     22 HAE         -3.0830     1.4530     1.3050 ha         1 KLS       0.139500
     23 HAI         -0.5410    -0.6580    -1.4320 ha         1 KLS       0.139500
     24 HAF         -4.7450    -0.3490     1.1420 ha         1 KLS       0.132500
     25 HAG         -4.2940    -2.3450    -0.2600 ha         1 KLS       0.135000
     26 HAH         -2.1710    -2.4790    -1.5330 ha         1 KLS       0.132500
@<TRIPOS>BOND
     1     1     2 1   
     2     1    15 1   
     3     1    16 1   
     4     1    17 1   
     5     2     3 1   
     6     2    18 1   
     7     3     4 2   
     8     3     5 1   
     9     5     6 1   
    10     5    19 1   
    11     6     7 2   
    12     6     8 1   
    13     7    20 1   
    14     8     9 1   
    15     8    21 1   
    16     9    10 ar  
    17     9    14 ar  
    18    10    11 ar  
    19    10    22 1   
    20    11    12 ar  
    21    11    24 1   
    22    12    13 ar  
    23    12    25 1   
    24    13    14 ar  
    25    13    26 1   
    26    14    23 1   
@<TRIPOS>SUBSTRUCTURE
     1 KLS         1 TEMP              0 ****  ****    0 ROOT
