@<TRIPOS>MOLECULE
KLS
   26    26     1     0     0
SMALL
No Charge or Current Charge


@<TRIPOS>ATOM
      1 CAM          5.2190    -0.7160     0.8440 c3         1 KLS       0.111300
      2 NAL          3.7650    -0.8930     0.8480 ns         1 KLS      -0.532900
      3 CAK          2.9060    -0.2000     0.0340 c          1 KLS       0.670100
      4 OAJ          3.2870     0.6370    -0.7670 o          1 KLS      -0.581100
      5 NAN          1.6070    -0.5420     0.2400 ns         1 KLS      -0.468400
      6 CAB          0.5160    -0.0820    -0.4260 c2         1 KLS       0.707800
      7 NAA          0.4110     0.1780    -1.6520 n2         1 KLS      -0.813100
      8 NAC         -0.5780    -0.1940     0.3570 nu         1 KLS      -1.005200
      9 CAD         -1.9320    -0.1320     0.0390 ca         1 KLS       0.303000
     10 CAE         -2.7780     0.7100     0.7780 ca         1 KLS      -0.158500
     11 CAF         -4.1500     0.7810     0.4760 ca         1 KLS      -0.081500
     12 CAG         -4.6790     0.0010    -0.5660 ca         1 KLS      -0.137000
     13 CAH         -3.8390    -0.8520    -1.3020 ca         1 KLS      -0.081500
     14 CAI         -2.4680    -0.9180    -0.9960 ca         1 KLS      -0.158500
     15 HAM1         5.6720    -1.3880     1.5830 h1         1 KLS       0.040367
     16 HAM2         5.6170    -0.9520    -0.1510 h1         1 KLS       0.040367
     17 HAM3         5.4660     0.3220     1.0990 h1         1 KLS       0.040367
     18 HAL          3.3650    -1.5700     1.4860 hn         1 KLS       0.311500
     19 HAN          1.4230    -1.2200     0.9580 hn         1 KLS       0.320500
     20 HAA         -0.5830     0.3730    -1.8040 hn         1 KLS       0.388400
     21 HAC         -0.3800     0.0910     1.3120 hn         1 KLS       0.496000
     22 HAE         -2.3750     1.3170     1.5840 ha         1 KLS       0.121500
     23 HAI         -1.8250    -1.5900    -1.5580 ha         1 KLS       0.121500
     24 HAF         -4.8010     1.4380     1.0490 ha         1 KLS       0.114500
     25 HAG         -5.7400     0.0530    -0.8000 ha         1 KLS       0.117000
     26 HAH         -4.2490    -1.4620    -2.1040 ha         1 KLS       0.114500
@<TRIPOS>BOND
     1     1     2 1   
     2     1    15 1   
     3     1    16 1   
     4     1    17 1   
     5     2     3 1   
     6     2    18 1   
     7     3     4 2   
     8     3     5 1   
     9     5     6 1   
    10     5    19 1   
    11     6     7 2   
    12     6     8 1   
    13     7    20 1   
    14     8     9 1   
    15     8    21 1   
    16     9    10 ar  
    17     9    14 ar  
    18    10    11 ar  
    19    10    22 1   
    20    11    12 ar  
    21    11    24 1   
    22    12    13 ar  
    23    12    25 1   
    24    13    14 ar  
    25    13    26 1   
    26    14    23 1   
@<TRIPOS>SUBSTRUCTURE
     1 KLS         1 TEMP              0 ****  ****    0 ROOT
