@<TRIPOS>MOLECULE
KLT
   33    35     1     0     0
SMALL
abcg2


@<TRIPOS>ATOM
      1 O1          -4.5210     2.1460    18.0990 o          1 KLT      -0.518500
      2 S1          -5.0950     1.4290    16.9760 sy         1 KLT       1.168600
      3 O2          -6.3350     0.6940    17.1350 o          1 KLT      -0.518500
      4 N1          -3.9720     0.3620    16.4730 n8         1 KLT      -1.039100
      5 C1          -5.3420     2.6170    15.6640 ca         1 KLT      -0.290500
      6 C2          -4.5950     2.5380    14.4990 ca         1 KLT      -0.007000
      7 C3          -6.2810     3.6310    15.8180 ca         1 KLT       0.217000
      8 CL1         -7.2260     3.7720    17.2520 cl         1 KLT      -0.150000
      9 C4          -6.4680     4.5560    14.8050 ca         1 KLT      -0.119000
     10 C5          -5.7150     4.4710    13.6450 ca         1 KLT      -0.035000
     11 C6          -4.7730     3.4650    13.4800 ca         1 KLT      -0.100300
     12 C7          -3.8930     3.4220    12.2410 c5         1 KLT       0.449000
     13 O8          -3.4770     2.1060    12.0750 oh         1 KLT      -0.651000
     14 C9          -2.7430     4.4040    12.3770 ca         1 KLT      -0.133300
     15 C10         -1.7190     4.4180    13.3030 ca         1 KLT      -0.078000
     16 C11         -0.7670     5.4280    13.1970 ca         1 KLT      -0.090000
     17 C12         -0.8450     6.3900    12.1910 ca         1 KLT      -0.108000
     18 C13         -1.8760     6.3630    11.2610 ca         1 KLT      -0.041000
     19 C14         -2.8140     5.3530    11.3750 ca         1 KLT      -0.156600
     20 C15         -3.9980     5.0600    10.5310 c          1 KLT       0.582600
     21 O3          -4.3880     5.6750     9.5600 o          1 KLT      -0.520000
     22 N2          -4.5650     3.9510    11.0740 ns         1 KLT      -0.551900
     23 HN1         -4.2450    -0.2590    15.7220 hn         1 KLT       0.491000
     24 HN1A        -3.0240     0.7100    16.3920 hn         1 KLT       0.491000
     25 H2          -3.8630     1.7510    14.3850 ha         1 KLT       0.121000
     26 H4          -7.2000     5.3430    14.9190 ha         1 KLT       0.139000
     27 H5          -5.8800     5.2070    12.8700 ha         1 KLT       0.132000
     28 HO8         -2.7980     2.0690    11.3910 ho         1 KLT       0.468000
     29 H10         -1.6530     3.6810    14.0940 ha         1 KLT       0.124000
     30 H11          0.0470     5.4690    13.9080 ha         1 KLT       0.121000
     31 H12         -0.0910     7.1650    12.1360 ha         1 KLT       0.123000
     32 H13         -1.9410     7.1040    10.4750 ha         1 KLT       0.139000
     33 HN2         -5.4170     3.5420    10.7160 hn         1 KLT       0.340500
@<TRIPOS>BOND
     1     1     2 2   
     2     2     3 2   
     3     2     4 1   
     4     2     5 1   
     5     4    23 1   
     6     4    24 1   
     7     5     6 ar  
     8     5     7 ar  
     9     6    11 ar  
    10     6    25 1   
    11     7     8 1   
    12     7     9 ar  
    13     9    10 ar  
    14     9    26 1   
    15    10    11 ar  
    16    10    27 1   
    17    11    12 1   
    18    12    13 1   
    19    12    14 1   
    20    12    22 1   
    21    13    28 1   
    22    14    15 ar  
    23    14    19 ar  
    24    15    16 ar  
    25    15    29 1   
    26    16    17 ar  
    27    16    30 1   
    28    17    18 ar  
    29    17    31 1   
    30    18    19 ar  
    31    18    32 1   
    32    19    20 1   
    33    20    21 2   
    34    20    22 1   
    35    22    33 1   
@<TRIPOS>SUBSTRUCTURE
     1 KLT         1 TEMP              0 ****  ****    0 ROOT
