@<TRIPOS>MOLECULE
KLT
   33    35     1     0     0
SMALL
No Charge or Current Charge


@<TRIPOS>ATOM
      1 O1          -3.3990     0.6710    16.7600 o          1 KLT      -0.518500
      2 S1          -4.6380     1.3820    17.0610 sy         1 KLT       1.168600
      3 O2          -4.8730     2.0340    18.3500 o          1 KLT      -0.518500
      4 N1          -5.7900     0.2240    16.9520 n8         1 KLT      -1.039100
      5 C1          -5.0660     2.4790    15.7040 ca         1 KLT      -0.290500
      6 C2          -4.2240     2.5200    14.5670 ca         1 KLT      -0.007000
      7 C3          -6.2120     3.3050    15.7440 ca         1 KLT       0.217000
      8 Cl1         -7.3540     3.3130    17.0900 cl         1 KLT      -0.150000
      9 C4          -6.4890     4.1580    14.6660 ca         1 KLT      -0.119000
     10 C5          -5.6460     4.1970    13.5440 ca         1 KLT      -0.035000
     11 C6          -4.5070     3.3680    13.4720 ca         1 KLT      -0.100300
     12 C7          -3.5770     3.4300    12.2500 c5         1 KLT       0.449000
     13 O8          -2.8650     2.2310    12.0720 oh         1 KLT      -0.651000
     14 C9          -2.6110     4.5900    12.3650 ca         1 KLT      -0.133300
     15 C10         -1.6590     4.8690    13.3590 ca         1 KLT      -0.078000
     16 C11         -0.8820     6.0410    13.2340 ca         1 KLT      -0.090000
     17 C12         -1.0660     6.9090    12.1320 ca         1 KLT      -0.108000
     18 C13         -2.0280     6.6140    11.1430 ca         1 KLT      -0.041000
     19 C14         -2.7830     5.4420    11.2940 ca         1 KLT      -0.156600
     20 C15         -3.8490     4.8860    10.4310 c          1 KLT       0.582600
     21 O3          -4.2870     5.3650     9.3990 o          1 KLT      -0.520000
     22 N2          -4.2710     3.7070    11.0030 ns         1 KLT      -0.551900
     23 HN1         -5.9800     0.2080    15.9540 hn         1 KLT       0.491000
     24 HN1A        -5.2290    -0.6120    17.0990 hn         1 KLT       0.491000
     25 H2          -3.3350     1.8940    14.5350 ha         1 KLT       0.121000
     26 H4          -7.3670     4.7970    14.6990 ha         1 KLT       0.139000
     27 H5          -5.8840     4.8790    12.7310 ha         1 KLT       0.132000
     28 HO8         -2.2830     2.4000    11.3050 ho         1 KLT       0.468000
     29 H10         -1.5240     4.2000    14.2060 ha         1 KLT       0.124000
     30 H11         -0.1390     6.2780    13.9910 ha         1 KLT       0.121000
     31 H12         -0.4620     7.8100    12.0460 ha         1 KLT       0.123000
     32 H13         -2.1790     7.2750    10.2920 ha         1 KLT       0.139000
     33 HN2         -5.0170     3.1660    10.5880 hn         1 KLT       0.340500
@<TRIPOS>BOND
     1     1     2 2   
     2     2     3 2   
     3     2     4 1   
     4     2     5 1   
     5     4    23 1   
     6     4    24 1   
     7     5     6 ar  
     8     5     7 ar  
     9     6    11 ar  
    10     6    25 1   
    11     7     8 1   
    12     7     9 ar  
    13     9    10 ar  
    14     9    26 1   
    15    10    11 ar  
    16    10    27 1   
    17    11    12 1   
    18    12    13 1   
    19    12    14 1   
    20    12    22 1   
    21    13    28 1   
    22    14    15 ar  
    23    14    19 ar  
    24    15    16 ar  
    25    15    29 1   
    26    16    17 ar  
    27    16    30 1   
    28    17    18 ar  
    29    17    31 1   
    30    18    19 ar  
    31    18    32 1   
    32    19    20 1   
    33    20    21 2   
    34    20    22 1   
    35    22    33 1   
@<TRIPOS>SUBSTRUCTURE
     1 KLT         1 TEMP              0 ****  ****    0 ROOT
