@<TRIPOS>MOLECULE
KLU
   28    29     1     0     0
SMALL
abcg2


@<TRIPOS>ATOM
      1 N1           8.4950    28.6240    18.0900 n          1 KLU      -0.229400
      2 C4           8.5760    27.6180    19.0110 c          1 KLU       0.604100
      3 C5           9.9660    27.3740    19.5860 c3         1 KLU       0.021600
      4 C6           7.2520    29.0260    17.5510 ca         1 KLU      -0.116000
      5 C7           6.3220    28.1290    17.0300 ca         1 KLU      -0.062000
      6 C8           5.1390    28.5880    16.4780 ca         1 KLU      -0.126000
      7 C10          5.8140    30.8560    16.9050 ca         1 KLU      -0.130000
      8 C1          10.1710    31.9930    18.1760 c          1 KLU       0.608100
      9 C11          6.9960    30.3960    17.4740 ca         1 KLU       0.108100
     10 C2           9.1130    30.9270    18.4440 c6         1 KLU       0.060300
     11 C3           9.5450    29.5950    17.8420 c6         1 KLU       0.071000
     12 C9           4.8840    29.9540    16.4180 ca         1 KLU      -0.085000
     13 N2           9.8100    33.0150    17.4010 nt         1 KLU      -0.584000
     14 O1          11.2800    31.8460    18.6650 o          1 KLU      -0.608100
     15 O2           7.6210    26.9530    19.3430 o          1 KLU      -0.535100
     16 O3           7.8610    31.3330    17.9290 os         1 KLU      -0.358100
     17 CL1          9.9670    25.9610    20.6570 cl         1 KLU      -0.216000
     18 H12         10.6950    27.1930    18.7960 h1         1 KLU       0.085700
     19 H5          10.3020    28.2310    20.1700 h1         1 KLU       0.085700
     20 H6           6.5280    27.0700    17.0500 ha         1 KLU       0.136000
     21 H7           4.4230    27.8800    16.0840 ha         1 KLU       0.122000
     22 H9           5.6330    31.9220    16.8520 ha         1 KLU       0.126000
     23 H1           9.0380    30.8100    19.5320 h1         1 KLU       0.086700
     24 H3           9.6970    29.6880    16.7640 h1         1 KLU       0.080200
     25 H2          10.4910    29.2960    18.2790 h1         1 KLU       0.080200
     26 H8           3.9640    30.3190    15.9830 ha         1 KLU       0.119000
     27 H11         10.4740    33.7430    17.1880 hn         1 KLU       0.327500
     28 H10          8.8830    33.0990    17.0200 hn         1 KLU       0.327500
@<TRIPOS>BOND
     1     1     2 1   
     2     1     4 1   
     3     1    11 1   
     4     2     3 1   
     5     2    15 2   
     6     3    17 1   
     7     3    18 1   
     8     3    19 1   
     9     4     5 ar  
    10     4     9 ar  
    11     5     6 ar  
    12     5    20 1   
    13     6    12 ar  
    14     6    21 1   
    15     7     9 ar  
    16     7    12 ar  
    17     7    22 1   
    18     8    10 1   
    19     8    13 1   
    20     8    14 2   
    21     9    16 1   
    22    10    11 1   
    23    10    16 1   
    24    10    23 1   
    25    11    24 1   
    26    11    25 1   
    27    12    26 1   
    28    13    27 1   
    29    13    28 1   
@<TRIPOS>SUBSTRUCTURE
     1 KLU         1 TEMP              0 ****  ****    0 ROOT
