@<TRIPOS>MOLECULE
KLU
   28    29     1     0     0
SMALL
No Charge or Current Charge


@<TRIPOS>ATOM
      1 N1           8.4080    28.8340    17.9610 n          1 KLU      -0.229400
      2 C4           8.7580    27.6360    18.6540 c          1 KLU       0.604100
      3 C5          10.2070    27.1180    18.5170 c3         1 KLU       0.021600
      4 C6           7.0540    29.1930    17.5750 ca         1 KLU      -0.116000
      5 C7           6.0430    28.2140    17.4120 ca         1 KLU      -0.062000
      6 C8           4.7190    28.5880    17.1250 ca         1 KLU      -0.126000
      7 C10          5.3560    30.9260    17.2070 ca         1 KLU      -0.130000
      8 C1           9.9170    32.4490    18.0520 c          1 KLU       0.608100
      9 C11          6.6780    30.5600    17.5040 ca         1 KLU       0.108100
     10 C2           8.9120    31.2660    18.2100 c6         1 KLU       0.060300
     11 C3           9.4340    29.8880    17.7290 c6         1 KLU       0.071000
     12 C9           4.3730    29.9430    17.0180 ca         1 KLU      -0.085000
     13 N2          11.2360    32.1950    18.2390 nt         1 KLU      -0.584000
     14 O1           9.5710    33.5890    17.7780 o          1 KLU      -0.608100
     15 O2           7.9290    26.9980    19.2970 o          1 KLU      -0.535100
     16 O3           7.6030    31.5700    17.6620 os         1 KLU      -0.358100
     17 Cl1         10.4000    25.3230    18.8090 cl         1 KLU      -0.216000
     18 H12         10.5610    27.3220    17.4990 h1         1 KLU       0.085700
     19 H5          10.8420    27.6480    19.2360 h1         1 KLU       0.085700
     20 H6           6.2760    27.1540    17.4700 ha         1 KLU       0.136000
     21 H7           3.9590    27.8220    16.9830 ha         1 KLU       0.122000
     22 H9           5.0920    31.9780    17.1300 ha         1 KLU       0.126000
     23 H1           8.7820    31.1750    19.2980 h1         1 KLU       0.086700
     24 H3           9.6670    29.9360    16.6550 h1         1 KLU       0.080200
     25 H2          10.3630    29.6530    18.2640 h1         1 KLU       0.080200
     26 H8           3.3480    30.2300    16.7930 ha         1 KLU       0.119000
     27 H11         11.8950    32.9540    18.1440 hn         1 KLU       0.327500
     28 H10         11.5580    31.2750    18.4960 hn         1 KLU       0.327500
@<TRIPOS>BOND
     1     1     2 1   
     2     1     4 1   
     3     1    11 1   
     4     2     3 1   
     5     2    15 2   
     6     3    17 1   
     7     3    18 1   
     8     3    19 1   
     9     4     5 ar  
    10     4     9 ar  
    11     5     6 ar  
    12     5    20 1   
    13     6    12 ar  
    14     6    21 1   
    15     7     9 ar  
    16     7    12 ar  
    17     7    22 1   
    18     8    10 1   
    19     8    13 1   
    20     8    14 2   
    21     9    16 1   
    22    10    11 1   
    23    10    16 1   
    24    10    23 1   
    25    11    24 1   
    26    11    25 1   
    27    12    26 1   
    28    13    27 1   
    29    13    28 1   
@<TRIPOS>SUBSTRUCTURE
     1 KLU         1 TEMP              0 ****  ****    0 ROOT
