@<TRIPOS>MOLECULE
KLV
   24    25     1     0     0
SMALL
No Charge or Current Charge


@<TRIPOS>ATOM
      1 C           -3.9100     2.4550    -0.1150 c3         1 KLV      -0.054900
      2 O           -3.9080    -2.3150     0.9130 o          1 KLV      -0.576000
      3 P            3.3520    -0.7280    -0.1950 p5         1 KLV       1.233900
      4 C1          -3.2030     1.1400     0.0940 cc         1 KLV       0.091600
      5 O1          -1.9010    -1.3700     0.4970 os         1 KLV      -0.328200
      6 C2          -3.8830    -0.0130     0.4140 cd         1 KLV      -0.443200
      7 C3          -3.2530    -1.3230     0.6300 c          1 KLV       0.686300
      8 O3           3.2110    -1.2680     1.1860 o          1 KLV      -0.881833
      9 C4          -1.1440    -0.2790     0.1820 ca         1 KLV       0.204100
     10 O4           2.9610    -1.7780    -1.1780 o          1 KLV      -0.881833
     11 C5          -1.7500     0.9760    -0.0240 ca         1 KLV      -0.289800
     12 O5           4.7740    -0.3490    -0.4270 o          1 KLV      -0.881833
     13 C6          -0.9250     2.0740    -0.3480 ca         1 KLV      -0.043000
     14 C7           0.4640     1.9090    -0.4590 ca         1 KLV      -0.240000
     15 C8           1.0580     0.6550    -0.2510 ca         1 KLV       0.368100
     16 C9           0.2410    -0.4420     0.0710 ca         1 KLV      -0.240000
     17 H           -3.7370     2.8350    -1.1290 hc         1 KLV       0.032700
     18 HA          -4.9940     2.3550     0.0210 hc         1 KLV       0.032700
     19 HB          -3.5550     3.2080     0.5990 hc         1 KLV       0.032700
     20 H2          -4.9600    -0.0190     0.5290 ha         1 KLV       0.171000
     21 H6          -1.3470     3.0620    -0.5160 ha         1 KLV       0.069000
     22 H7           1.0890     2.7610    -0.7090 ha         1 KLV       0.107000
     23 H9           0.6650    -1.4250     0.2390 ha         1 KLV       0.189000
     24 O2           2.4200     0.5730    -0.3770 os         1 KLV      -0.357500
@<TRIPOS>BOND
     1     1     4 1   
     2     1    17 1   
     3     1    18 1   
     4     1    19 1   
     5     2     7 2   
     6     3     8 1   
     7     3    10 1   
     8     3    12 1   
     9     3    24 1   
    10     4     6 2   
    11     4    11 1   
    12     5     7 1   
    13     5     9 1   
    14     6     7 1   
    15     6    20 1   
    16     9    11 ar  
    17     9    16 ar  
    18    11    13 ar  
    19    13    14 ar  
    20    13    21 1   
    21    14    15 ar  
    22    14    22 1   
    23    15    16 ar  
    24    15    24 1   
    25    16    23 1   
@<TRIPOS>SUBSTRUCTURE
     1 KLV         1 TEMP              0 ****  ****    0 ROOT
