@<TRIPOS>MOLECULE
KLV
   24    25     1     0     0
SMALL
abcg2


@<TRIPOS>ATOM
      1 C           -3.8660     2.4100    -0.0860 c3         1 KLV      -0.054900
      2 O           -3.7790    -2.3360     0.8800 o          1 KLV      -0.576000
      3 P            3.3590    -0.8580    -0.1380 p5         1 KLV       1.233900
      4 C1          -3.1760     1.1000     0.1060 cc         1 KLV       0.091600
      5 O1          -1.8800    -1.3250     0.4670 os         1 KLV      -0.328200
      6 C2          -3.8750    -0.0200     0.4120 cd         1 KLV      -0.443200
      7 C3          -3.2310    -1.2920     0.6060 c          1 KLV       0.686300
      8 O3           3.1030    -1.1600     1.3230 o          1 KLV      -0.881833
      9 C4          -1.1370    -0.2320     0.1580 ca         1 KLV       0.204100
     10 O4           2.8120    -1.8660    -1.1280 o          1 KLV      -0.881833
     11 C5          -1.7500     1.0110    -0.0330 ca         1 KLV      -0.289800
     12 O5           4.7060    -0.2550    -0.4750 o          1 KLV      -0.881833
     13 C6          -0.9090     2.0870    -0.3560 ca         1 KLV      -0.043000
     14 C7           0.4470     1.9210    -0.4780 ca         1 KLV      -0.240000
     15 C8           1.0520     0.6570    -0.2830 ca         1 KLV       0.368100
     16 C9           0.2270    -0.4280     0.0420 ca         1 KLV      -0.240000
     17 H           -3.6540     2.8220    -1.0740 hc         1 KLV       0.032700
     18 HA          -4.9440     2.3080     0.0200 hc         1 KLV       0.032700
     19 HB          -3.5190     3.1410     0.6460 hc         1 KLV       0.032700
     20 H2          -4.9510     0.0020     0.5210 ha         1 KLV       0.171000
     21 H6          -1.3350     3.0690    -0.5160 ha         1 KLV       0.069000
     22 H7           1.0750     2.7670    -0.7290 ha         1 KLV       0.107000
     23 H9           0.6370    -1.4160     0.1880 ha         1 KLV       0.189000
     24 O2           2.3530     0.5880    -0.4270 os         1 KLV      -0.357500
@<TRIPOS>BOND
     1     1     4 1   
     2     1    17 1   
     3     1    18 1   
     4     1    19 1   
     5     2     7 2   
     6     3     8 1   
     7     3    10 1   
     8     3    12 1   
     9     3    24 1   
    10     4     6 2   
    11     4    11 1   
    12     5     7 1   
    13     5     9 1   
    14     6     7 1   
    15     6    20 1   
    16     9    11 ar  
    17     9    16 ar  
    18    11    13 ar  
    19    13    14 ar  
    20    13    21 1   
    21    14    15 ar  
    22    14    22 1   
    23    15    16 ar  
    24    15    24 1   
    25    16    23 1   
@<TRIPOS>SUBSTRUCTURE
     1 KLV         1 TEMP              0 ****  ****    0 ROOT
