@<TRIPOS>MOLECULE
KLW
   18    18     1     0     0
SMALL
No Charge or Current Charge


@<TRIPOS>ATOM
      1 N            1.9970     1.3610    -0.7880 nt         1 KLW      -0.588000
      2 C1          -2.7560     1.0260     0.5020 ca         1 KLW      -0.146000
      3 O1           1.0080     3.0010     0.2970 o          1 KLW      -0.624100
      4 C2          -2.8050    -0.3620     0.3310 ca         1 KLW      -0.135000
      5 O2           1.2250    -1.2440    -1.6230 o          1 KLW      -0.713500
      6 C3          -1.6370    -1.0630     0.0020 ca         1 KLW      -0.092000
      7 O3           1.2730    -1.9130     0.4260 o          1 KLW      -0.713500
      8 C4          -0.4070    -0.3910    -0.1710 ca         1 KLW      -0.110600
      9 C5          -0.3480     1.0310    -0.0060 ca         1 KLW      -0.120600
     10 C6          -1.5420     1.7110     0.3400 ca         1 KLW      -0.114000
     11 C7           0.9210     1.8680    -0.1530 c          1 KLW       0.662700
     12 HN           2.8260     1.9260    -0.8810 hn         1 KLW       0.293500
     13 HNA          1.9420     0.4460    -1.2190 hn         1 KLW       0.293500
     14 H1          -3.6590     1.5740     0.7620 ha         1 KLW       0.085000
     15 H2          -3.7440    -0.8950     0.4590 ha         1 KLW       0.086000
     16 H3          -1.6800    -2.1440    -0.1170 ha         1 KLW       0.130000
     17 H6          -1.5360     2.7900     0.4780 ha         1 KLW       0.095000
     18 C8           0.7960    -1.2470    -0.4790 c          1 KLW       0.710600
@<TRIPOS>BOND
     1     1    11 1   
     2     1    12 1   
     3     1    13 1   
     4     2     4 ar  
     5     2    10 ar  
     6     2    14 1   
     7     3    11 2   
     8     4     6 ar  
     9     4    15 1   
    10     5    18 1   
    11     6     8 ar  
    12     6    16 1   
    13     7    18 1   
    14     8     9 ar  
    15     8    18 1   
    16     9    10 ar  
    17     9    11 1   
    18    10    17 1   
@<TRIPOS>SUBSTRUCTURE
     1 KLW         1 TEMP              0 ****  ****    0 ROOT
