@<TRIPOS>MOLECULE
KLW
   18    18     1     0     0
SMALL
abcg2


@<TRIPOS>ATOM
      1 N            1.5710     2.0220    -0.8690 nt         1 KLW      -0.588000
      2 C1          -2.6420     1.0760     0.2280 ca         1 KLW      -0.146000
      3 O1           1.5760     1.7270     1.3720 o          1 KLW      -0.624100
      4 C2          -2.7930    -0.2870     0.0110 ca         1 KLW      -0.135000
      5 O2           0.5990    -2.6650    -0.4690 o          1 KLW      -0.713500
      6 C3          -1.6710    -1.0870    -0.1420 ca         1 KLW      -0.092000
      7 O3           1.9370    -0.9090    -0.1630 o          1 KLW      -0.713500
      8 C4          -0.3860    -0.5530    -0.0810 ca         1 KLW      -0.110600
      9 C5          -0.2430     0.8180     0.1360 ca         1 KLW      -0.120600
     10 C6          -1.3690     1.6230     0.2910 ca         1 KLW      -0.114000
     11 C7           1.0880     1.5060     0.2740 c          1 KLW       0.662700
     12 HN           2.4880     2.4400    -0.8750 hn         1 KLW       0.293500
     13 HNA          1.2260     1.6950    -1.7550 hn         1 KLW       0.293500
     14 H1          -3.5090     1.7120     0.3490 ha         1 KLW       0.085000
     15 H2          -3.7830    -0.7230    -0.0390 ha         1 KLW       0.086000
     16 H3          -1.7860    -2.1490    -0.3100 ha         1 KLW       0.130000
     17 H6          -1.2530     2.6880     0.4550 ha         1 KLW       0.095000
     18 C8           0.8240    -1.4610    -0.2540 c          1 KLW       0.710600
@<TRIPOS>BOND
     1     1    11 1   
     2     1    12 1   
     3     1    13 1   
     4     2     4 ar  
     5     2    10 ar  
     6     2    14 1   
     7     3    11 2   
     8     4     6 ar  
     9     4    15 1   
    10     5    18 1   
    11     6     8 ar  
    12     6    16 1   
    13     7    18 1   
    14     8     9 ar  
    15     8    18 1   
    16     9    10 ar  
    17     9    11 1   
    18    10    17 1   
@<TRIPOS>SUBSTRUCTURE
     1 KLW         1 TEMP              0 ****  ****    0 ROOT
