@<TRIPOS>MOLECULE
KLX
   45    47     1     0     0
SMALL
No Charge or Current Charge


@<TRIPOS>ATOM
      1 C02          5.5610     7.3890    21.0850 ca         1 KLX       0.169100
      2 C04          4.5140     6.2180    22.9520 ca         1 KLX      -0.079500
      3 C05          5.5390     6.6550    23.8060 ca         1 KLX      -0.168000
      4 C06          6.5730     7.4640    23.3070 ca         1 KLX      -0.079500
      5 C07          6.5860     7.8350    21.9510 ca         1 KLX      -0.177500
      6 C10          6.1240     8.8620    17.6580 c6         1 KLX      -0.067400
      7 C11          5.7800     7.7270    16.6360 c6         1 KLX      -0.032700
      8 C13          7.4780     6.2160    17.8610 c6         1 KLX      -0.050400
      9 C17          4.4480     6.9740    16.9690 c3         1 KLX       0.166600
     10 C19          2.1180     7.5510    17.5380 ca         1 KLX       0.192100
     11 C20          1.1560     8.5620    17.7060 ca         1 KLX      -0.165000
     12 C21         -0.1490     8.2440    18.1180 ca         1 KLX      -0.075000
     13 C22         -0.4950     6.9050    18.3640 ca         1 KLX      -0.171000
     14 C23          0.4630     5.8920    18.1970 ca         1 KLX       0.163000
     15 C24          1.7660     6.2070    17.7840 ca         1 KLX      -0.201000
     16 O01          5.5000     7.7200    19.7450 os         1 KLX      -0.342100
     17 C03          4.5270     6.5880    21.5970 ca         1 KLX      -0.177500
     18 C08          7.7960     7.3560    18.8610 c6         1 KLX      -0.108400
     19 C09          6.6010     8.3370    19.0410 c6         1 KLX       0.182300
     20 C12          7.0240     6.7840    16.4850 c6         1 KLX      -0.194700
     21 C14          6.8540     5.6780    15.4100 c          1 KLX       0.717000
     22 O15          6.1030     4.7430    15.6420 o          1 KLX      -0.728000
     23 O16          7.5390     5.7560    14.4010 o          1 KLX      -0.728000
     24 O18          3.3830     7.9270    17.1390 os         1 KLX      -0.349100
     25 Cl25         0.0260     4.2180    18.5060 cl         1 KLX      -0.229000
     26 H27          3.7100     5.5940    23.3390 ha         1 KLX       0.101000
     27 H28          5.5310     6.3690    24.8560 ha         1 KLX       0.102000
     28 H29          7.3640     7.8050    23.9720 ha         1 KLX       0.101000
     29 H30          7.3940     8.4670    21.5950 ha         1 KLX       0.122500
     30 H35          5.2690     9.5380    17.7940 hc         1 KLX       0.042200
     31 H34          6.9200     9.4890    17.2330 hc         1 KLX       0.042200
     32 H36          5.5990     8.2020    15.6620 hc         1 KLX       0.072700
     33 H38          8.3740     5.5930    17.7250 hc         1 KLX       0.049700
     34 H39          6.7080     5.5540    18.2800 hc         1 KLX       0.049700
     35 H42          4.2010     6.2920    16.1460 h1         1 KLX       0.059700
     36 H41          4.5820     6.3750    17.8780 h1         1 KLX       0.059700
     37 H43          1.4280     9.5970    17.5170 ha         1 KLX       0.123000
     38 H44         -0.8880     9.0320    18.2470 ha         1 KLX       0.103000
     39 H45         -1.5020     6.6520    18.6840 ha         1 KLX       0.116000
     40 H46          2.4820     5.4010    17.6630 ha         1 KLX       0.149000
     41 H26          3.7320     6.2520    20.9360 ha         1 KLX       0.122500
     42 H31          8.6680     7.9190    18.5000 hc         1 KLX       0.032200
     43 H32          8.0960     6.9260    19.8250 hc         1 KLX       0.032200
     44 H33          6.9300     9.2100    19.6210 h1         1 KLX       0.019700
     45 H37          7.8330     7.4290    16.1130 hc         1 KLX       0.030700
@<TRIPOS>BOND
     1     1     5 ar  
     2     1    16 1   
     3     1    17 ar  
     4     2     3 ar  
     5     2    17 ar  
     6     2    26 1   
     7     3     4 ar  
     8     3    27 1   
     9     4     5 ar  
    10     4    28 1   
    11     5    29 1   
    12     6     7 1   
    13     6    19 1   
    14     6    30 1   
    15     6    31 1   
    16     7     9 1   
    17     7    20 1   
    18     7    32 1   
    19     8    18 1   
    20     8    20 1   
    21     8    33 1   
    22     8    34 1   
    23     9    24 1   
    24     9    35 1   
    25     9    36 1   
    26    10    11 ar  
    27    10    15 ar  
    28    10    24 1   
    29    11    12 ar  
    30    11    37 1   
    31    12    13 ar  
    32    12    38 1   
    33    13    14 ar  
    34    13    39 1   
    35    14    15 ar  
    36    14    25 1   
    37    15    40 1   
    38    16    19 1   
    39    17    41 1   
    40    18    19 1   
    41    18    42 1   
    42    18    43 1   
    43    19    44 1   
    44    20    21 1   
    45    20    45 1   
    46    21    22 1   
    47    21    23 1   
@<TRIPOS>SUBSTRUCTURE
     1 KLX         1 TEMP              0 ****  ****    0 ROOT
