@<TRIPOS>MOLECULE
KLX
   45    47     1     0     0
SMALL
bcc


@<TRIPOS>ATOM
      1 C02          5.5130     7.4350    21.0020 ca         1 KLX       0.169100
      2 C04          4.3640     6.3300    22.8140 ca         1 KLX      -0.097500
      3 C05          5.3510     6.7330    23.7070 ca         1 KLX      -0.186000
      4 C06          6.4140     7.4880    23.2350 ca         1 KLX      -0.097500
      5 C07          6.5050     7.8420    21.8930 ca         1 KLX      -0.195500
      6 C10          6.1440     8.8180    17.6830 c6         1 KLX      -0.067400
      7 C11          5.8000     7.7240    16.6650 c6         1 KLX      -0.032700
      8 C13          7.3900     6.1840    17.8950 c6         1 KLX      -0.050400
      9 C17          4.5010     6.9840    16.9560 c3         1 KLX       0.143400
     10 C19          2.2640     7.5370    17.5690 ca         1 KLX       0.192100
     11 C20          1.3280     8.5410    17.8380 ca         1 KLX      -0.183000
     12 C21          0.0640     8.2070    18.2830 ca         1 KLX      -0.093000
     13 C22         -0.3070     6.8790    18.4730 ca         1 KLX      -0.189000
     14 C23          0.6300     5.9020    18.1980 ca         1 KLX       0.071400
     15 C24          1.9100     6.2000    17.7490 ca         1 KLX      -0.219000
     16 O01          5.4810     7.7410    19.6910 os         1 KLX      -0.318900
     17 C03          4.4420     6.6730    21.4750 ca         1 KLX      -0.195500
     18 C08          7.7420     7.3010    18.8730 c6         1 KLX      -0.108400
     19 C09          6.6160     8.3140    19.0380 c6         1 KLX       0.159100
     20 C12          6.9750     6.7380    16.5360 c6         1 KLX      -0.194700
     21 C14          6.7330     5.6590    15.4480 c          1 KLX       0.927600
     22 O15          7.0140     4.4790    15.7320 o          1 KLX      -0.833300
     23 O16          6.2950     6.0740    14.3540 o          1 KLX      -0.833300
     24 O18          3.4650     7.9410    17.1400 os         1 KLX      -0.325900
     25 CL25         0.2040     4.2330    18.4170 cl         1 KLX      -0.137400
     26 H27          3.5260     5.7390    23.1600 ha         1 KLX       0.119000
     27 H28          5.2920     6.4610    24.7520 ha         1 KLX       0.120000
     28 H29          7.1930     7.8100    23.9140 ha         1 KLX       0.119000
     29 H30          7.3520     8.4310    21.5670 ha         1 KLX       0.140500
     30 H35          5.3180     9.5190    17.8150 hc         1 KLX       0.042200
     31 H34          6.9700     9.4050    17.2680 hc         1 KLX       0.042200
     32 H36          5.6780     8.2160    15.6960 hc         1 KLX       0.072700
     33 H38          8.2590     5.5350    17.7760 hc         1 KLX       0.049700
     34 H39          6.6050     5.5500    18.3170 hc         1 KLX       0.049700
     35 H42          4.2510     6.3360    16.1100 h1         1 KLX       0.059700
     36 H41          4.5880     6.3540    17.8440 h1         1 KLX       0.059700
     37 H43          1.6070     9.5770    17.6970 ha         1 KLX       0.141000
     38 H44         -0.6510     8.9920    18.4910 ha         1 KLX       0.121000
     39 H45         -1.2970     6.6220    18.8220 ha         1 KLX       0.134000
     40 H46          2.6020     5.3960    17.5410 ha         1 KLX       0.167000
     41 H26          3.6720     6.3560    20.7810 ha         1 KLX       0.140500
     42 H31          8.6140     7.8480    18.5000 hc         1 KLX       0.032200
     43 H32          8.0390     6.8860    19.8400 hc         1 KLX       0.032200
     44 H33          6.9690     9.1750    19.6190 h1         1 KLX       0.019700
     45 H37          7.8200     7.3380    16.1670 hc         1 KLX       0.030700
@<TRIPOS>BOND
     1     1     5 ar  
     2     1    16 1   
     3     1    17 ar  
     4     2     3 ar  
     5     2    17 ar  
     6     2    26 1   
     7     3     4 ar  
     8     3    27 1   
     9     4     5 ar  
    10     4    28 1   
    11     5    29 1   
    12     6     7 1   
    13     6    19 1   
    14     6    30 1   
    15     6    31 1   
    16     7     9 1   
    17     7    20 1   
    18     7    32 1   
    19     8    18 1   
    20     8    20 1   
    21     8    33 1   
    22     8    34 1   
    23     9    24 1   
    24     9    35 1   
    25     9    36 1   
    26    10    11 ar  
    27    10    15 ar  
    28    10    24 1   
    29    11    12 ar  
    30    11    37 1   
    31    12    13 ar  
    32    12    38 1   
    33    13    14 ar  
    34    13    39 1   
    35    14    15 ar  
    36    14    25 1   
    37    15    40 1   
    38    16    19 1   
    39    17    41 1   
    40    18    19 1   
    41    18    42 1   
    42    18    43 1   
    43    19    44 1   
    44    20    21 1   
    45    20    45 1   
    46    21    22 1   
    47    21    23 1   
@<TRIPOS>SUBSTRUCTURE
     1 KLX         1 TEMP              0 ****  ****    0 ROOT
