@<TRIPOS>MOLECULE
KLY
   42    43     1     0     0
SMALL
abcg2


@<TRIPOS>ATOM
      1 C15          2.6960     0.8690    -0.0490 ca         1 KLY       0.061000
      2 C14          2.8470     2.2570    -0.0990 ca         1 KLY      -0.137000
      3 C11          0.3430     1.1280     0.4760 ca         1 KLY      -0.052300
      4 C12          0.4950     2.5110     0.4240 ca         1 KLY      -0.148000
      5 C19          5.9370    -1.5210    -0.7670 c3         1 KLY       0.241900
      6 C21          7.2340    -3.3960    -0.0230 c3         1 KLY       0.140100
      7 N20          6.0560    -2.5840     0.2130 n7         1 KLY      -0.848400
      8 C18          4.7780    -0.6730    -0.5050 c1         1 KLY      -0.111100
      9 C17          3.8210     0.0280    -0.2940 cg         1 KLY      -0.119000
     10 C16          1.4460     0.3160     0.2380 ca         1 KLY      -0.104000
     11 C13          1.7380     3.0410     0.1400 ca         1 KLY       0.170000
     12 F13          1.8750     4.3760     0.0930 f          1 KLY      -0.180000
     13 C09         -1.0100     0.5290     0.7300 c3         1 KLY      -0.030100
     14 C08         -1.7840     0.3250    -0.5800 c3         1 KLY      -0.123700
     15 C06         -3.1600    -0.2310    -0.3490 ca         1 KLY       0.397300
     16 C05         -4.2860     0.4760    -0.7300 ca         1 KLY      -0.217000
     17 C04         -5.5500    -0.0790    -0.4910 ca         1 KLY       0.002700
     18 C07         -6.7910     0.6440    -0.9160 c3         1 KLY      -0.053800
     19 C03         -5.6120    -1.3090     0.1290 ca         1 KLY      -0.233000
     20 C02         -4.4150    -1.9540     0.4890 ca         1 KLY       0.605900
     21 N02         -4.4410    -3.1460     1.1510 nv         1 KLY      -1.061900
     22 N01         -3.2220    -1.4240     0.2460 nb         1 KLY      -0.757000
     23 H1           3.8060     2.7060    -0.3180 ha         1 KLY       0.137000
     24 H2          -0.3470     3.1680     0.6050 ha         1 KLY       0.131000
     25 H3           6.8370    -0.9010    -0.7180 h1         1 KLY       0.048200
     26 H4           5.8810    -1.8870    -1.8040 h1         1 KLY       0.048200
     27 H5           7.2620    -4.2150     0.6950 h1         1 KLY       0.032033
     28 H6           7.2890    -3.8280    -1.0320 h1         1 KLY       0.032033
     29 H7           8.1330    -2.7950     0.1240 h1         1 KLY       0.032033
     30 H8           5.2330    -3.1710     0.1600 hn         1 KLY       0.413000
     31 H10          1.3390    -0.7610     0.2760 ha         1 KLY       0.126000
     32 H11         -0.9080    -0.4320     1.2370 hc         1 KLY       0.062200
     33 H12         -1.5850     1.1820     1.3910 hc         1 KLY       0.062200
     34 H13         -1.8540     1.2750    -1.1150 hc         1 KLY       0.055200
     35 H14         -1.2210    -0.3580    -1.2240 hc         1 KLY       0.055200
     36 H15         -4.1900     1.4420    -1.2100 ha         1 KLY       0.122000
     37 H16         -6.8930     0.6210    -2.0030 hc         1 KLY       0.047033
     38 H17         -7.6870     0.1960    -0.4890 hc         1 KLY       0.047033
     39 H18         -6.7570     1.6920    -0.6220 hc         1 KLY       0.047033
     40 H19         -6.5660    -1.7770     0.3410 ha         1 KLY       0.119000
     41 H20         -5.2800    -3.6990     1.0970 hn         1 KLY       0.471500
     42 H21         -3.5870    -3.6790     1.1560 hn         1 KLY       0.471500
@<TRIPOS>BOND
     1     1     2 ar  
     2     1     9 1   
     3     1    10 ar  
     4     2    11 ar  
     5     2    23 1   
     6     3     4 ar  
     7     3    10 ar  
     8     3    13 1   
     9     4    11 ar  
    10     4    24 1   
    11     5     7 1   
    12     5     8 1   
    13     5    25 1   
    14     5    26 1   
    15     6     7 1   
    16     6    27 1   
    17     6    28 1   
    18     6    29 1   
    19     7    30 1   
    20     8     9 3   
    21    10    31 1   
    22    11    12 1   
    23    13    14 1   
    24    13    32 1   
    25    13    33 1   
    26    14    15 1   
    27    14    34 1   
    28    14    35 1   
    29    15    16 ar  
    30    15    22 ar  
    31    16    17 ar  
    32    16    36 1   
    33    17    18 1   
    34    17    19 ar  
    35    18    37 1   
    36    18    38 1   
    37    18    39 1   
    38    19    20 ar  
    39    19    40 1   
    40    20    21 1   
    41    20    22 ar  
    42    21    41 1   
    43    21    42 1   
@<TRIPOS>SUBSTRUCTURE
     1 KLY         1 TEMP              0 ****  ****    0 ROOT
