@<TRIPOS>MOLECULE
KLY
   42    43     1     0     0
SMALL
No Charge or Current Charge


@<TRIPOS>ATOM
      1 C15          2.7040     0.8890    -0.2240 ca         1 KLY       0.061000
      2 C14          2.8690     2.2750    -0.3910 ca         1 KLY      -0.137000
      3 C11          0.3180     1.2210     0.1930 ca         1 KLY      -0.052300
      4 C12          0.4910     2.6070     0.0220 ca         1 KLY      -0.148000
      5 C19          5.9180    -1.6450    -0.6510 c3         1 KLY       0.241900
      6 C21          7.3400    -3.3090     0.5350 c3         1 KLY       0.140100
      7 N20          6.2270    -2.3420     0.6110 n7         1 KLY      -0.848400
      8 C18          4.7820    -0.7370    -0.4660 c1         1 KLY      -0.111100
      9 C17          3.8310     0.0110    -0.3510 cg         1 KLY      -0.119000
     10 C16          1.4300     0.3650     0.0670 ca         1 KLY      -0.104000
     11 C13          1.7620     3.1270    -0.2680 ca         1 KLY       0.170000
     12 F13          1.9200     4.4590    -0.4300 f          1 KLY      -0.180000
     13 C09         -1.0590     0.6480     0.4990 c3         1 KLY      -0.030100
     14 C08         -1.7980     0.2000    -0.7800 c3         1 KLY      -0.123700
     15 C06         -3.1840    -0.3550    -0.4880 ca         1 KLY       0.397300
     16 C05         -4.2780     0.5100    -0.2970 ca         1 KLY      -0.217000
     17 C04         -5.5460    -0.0270    -0.0220 ca         1 KLY       0.002700
     18 C07         -6.7560     0.8680     0.1860 c3         1 KLY      -0.053800
     19 C03         -5.6510    -1.4240     0.0480 ca         1 KLY      -0.233000
     20 C02         -4.4980    -2.1870    -0.1530 ca         1 KLY       0.605900
     21 N02         -4.4800    -3.5200    -0.1170 nv         1 KLY      -1.061900
     22 N01         -3.2950    -1.7000    -0.4150 nb         1 KLY      -0.757000
     23 H1           3.8470     2.6910    -0.6150 ha         1 KLY       0.137000
     24 H2          -0.3560     3.2830     0.1100 ha         1 KLY       0.131000
     25 H3           6.7820    -1.0600    -0.9960 h1         1 KLY       0.048200
     26 H4           5.6640    -2.3640    -1.4430 h1         1 KLY       0.048200
     27 H5           7.5080    -3.7810     1.5130 h1         1 KLY       0.032033
     28 H6           7.1220    -4.1030    -0.1930 h1         1 KLY       0.032033
     29 H7           8.2710    -2.8120     0.2330 h1         1 KLY       0.032033
     30 H8           5.3790    -2.8470     0.8990 hn         1 KLY       0.413000
     31 H10          1.3040    -0.7080     0.1930 ha         1 KLY       0.126000
     32 H11         -0.9680    -0.2080     1.1790 hc         1 KLY       0.062200
     33 H12         -1.6690     1.3920     1.0270 hc         1 KLY       0.062200
     34 H13         -1.8820     1.0550    -1.4620 hc         1 KLY       0.055200
     35 H14         -1.1890    -0.5470    -1.3040 hc         1 KLY       0.055200
     36 H15         -4.1380     1.5860    -0.3640 ha         1 KLY       0.122000
     37 H16         -7.2530     1.0790    -0.7680 hc         1 KLY       0.047033
     38 H17         -7.4910     0.3990     0.8510 hc         1 KLY       0.047033
     39 H18         -6.4690     1.8270     0.6350 hc         1 KLY       0.047033
     40 H19         -6.6020    -1.9050     0.2550 ha         1 KLY       0.119000
     41 H20         -5.3580    -4.0010    -0.2780 hn         1 KLY       0.471500
     42 H21         -3.6490    -3.9470    -0.5080 hn         1 KLY       0.471500
@<TRIPOS>BOND
     1     1     2 ar  
     2     1     9 1   
     3     1    10 ar  
     4     2    11 ar  
     5     2    23 1   
     6     3     4 ar  
     7     3    10 ar  
     8     3    13 1   
     9     4    11 ar  
    10     4    24 1   
    11     5     7 1   
    12     5     8 1   
    13     5    25 1   
    14     5    26 1   
    15     6     7 1   
    16     6    27 1   
    17     6    28 1   
    18     6    29 1   
    19     7    30 1   
    20     8     9 3   
    21    10    31 1   
    22    11    12 1   
    23    13    14 1   
    24    13    32 1   
    25    13    33 1   
    26    14    15 1   
    27    14    34 1   
    28    14    35 1   
    29    15    16 ar  
    30    15    22 ar  
    31    16    17 ar  
    32    16    36 1   
    33    17    18 1   
    34    17    19 ar  
    35    18    37 1   
    36    18    38 1   
    37    18    39 1   
    38    19    20 ar  
    39    19    40 1   
    40    20    21 1   
    41    20    22 ar  
    42    21    41 1   
    43    21    42 1   
@<TRIPOS>SUBSTRUCTURE
     1 KLY         1 TEMP              0 ****  ****    0 ROOT
