@<TRIPOS>MOLECULE
KLZ
   24    25     1     0     0
SMALL
No Charge or Current Charge


@<TRIPOS>ATOM
      1 C1         -19.3370   -22.7380    -6.8250 ca         1 KLZ      -0.062300
      2 C2         -18.7900   -22.3690    -5.5740 ca         1 KLZ      -0.093000
      3 C3         -18.8810   -21.0400    -5.1180 ca         1 KLZ       0.156000
      4 C7         -19.7140   -18.6810    -5.6270 cc         1 KLZ      -0.147200
      5 C9         -19.2360   -24.1770    -7.3100 c3         1 KLZ       0.131900
      6 Cl         -18.1940   -20.6000    -3.5570 cl         1 KLZ      -0.196000
      7 S1         -20.6420   -25.1560    -6.6040 sh         1 KLZ      -0.442800
      8 C4         -19.5240   -20.0840    -5.9260 ca         1 KLZ      -0.071800
      9 C6         -20.3820   -18.0100    -6.6500 cd         1 KLZ      -0.134000
     10 N1         -21.6900   -16.1510    -7.4240 n2         1 KLZ      -0.839100
     11 N          -20.1560   -15.7770    -5.8210 nv         1 KLZ      -1.066200
     12 S          -20.8320   -19.0930    -8.0040 ss         1 KLZ       0.190400
     13 C5         -20.0600   -20.4440    -7.1470 ca         1 KLZ      -0.183000
     14 C          -19.9810   -21.7640    -7.6180 ca         1 KLZ      -0.060000
     15 H1         -18.2970   -23.1130    -4.9540 ha         1 KLZ       0.134000
     16 H2         -19.3940   -18.2050    -4.7040 ha         1 KLZ       0.211000
     17 H3         -19.2820   -24.2160    -8.4060 h1         1 KLZ       0.067200
     18 H4         -18.2850   -24.6210    -6.9860 h1         1 KLZ       0.067200
     19 H5         -20.3020   -26.3350    -7.1810 hs         1 KLZ       0.206800
     20 H6         -21.9210   -15.2010    -7.1130 hn         1 KLZ       0.380400
     21 H7         -19.3020   -16.1010    -5.3840 hn         1 KLZ       0.465000
     22 H8         -20.2150   -14.7760    -5.9670 hn         1 KLZ       0.465000
     23 H9         -20.4120   -22.0300    -8.5810 ha         1 KLZ       0.128000
     24 C8         -20.7650   -16.5940    -6.6740 cf         1 KLZ       0.690500
@<TRIPOS>BOND
     1     1     2 ar  
     2     1     5 1   
     3     1    14 ar  
     4     2     3 ar  
     5     2    15 1   
     6     3     6 1   
     7     3     8 ar  
     8     4     8 1   
     9     4     9 2   
    10     4    16 1   
    11     5     7 1   
    12     5    17 1   
    13     5    18 1   
    14     7    19 1   
    15     8    13 ar  
    16     9    12 1   
    17     9    24 1   
    18    10    20 1   
    19    10    24 2   
    20    11    21 1   
    21    11    22 1   
    22    11    24 1   
    23    12    13 1   
    24    13    14 ar  
    25    14    23 1   
@<TRIPOS>SUBSTRUCTURE
     1 KLZ         1 TEMP              0 ****  ****    0 ROOT
