@<TRIPOS>MOLECULE
KLZ
   24    25     1     0     0
SMALL
bcc


@<TRIPOS>ATOM
      1 C1         -19.3430   -22.6960    -6.8700 ca         1 KLZ      -0.062300
      2 C2         -18.7710   -22.3630    -5.6300 ca         1 KLZ      -0.111000
      3 C3         -18.8370   -21.0750    -5.1550 ca         1 KLZ       0.064400
      4 C7         -19.6640   -18.6880    -5.5930 cc         1 KLZ      -0.097200
      5 C9         -19.2780   -24.1140    -7.3480 c3         1 KLZ       0.084000
      6 CL         -18.1220   -20.6780    -3.6320 cl         1 KLZ      -0.104400
      7 S1         -20.6320   -25.0410    -6.5350 sh         1 KLZ      -0.394900
      8 C4         -19.4780   -20.0720    -5.8910 ca         1 KLZ      -0.071800
      9 C6         -20.3460   -18.0390    -6.5680 cd         1 KLZ      -0.134000
     10 N1         -21.5500   -16.3130    -7.5990 n2         1 KLZ      -0.839100
     11 N          -20.2880   -15.8170    -5.6590 nv         1 KLZ      -0.955800
     12 S          -20.8050   -19.0710    -7.8840 ss         1 KLZ       0.063500
     13 C5         -20.0500   -20.4300    -7.1240 ca         1 KLZ      -0.056100
     14 C          -19.9910   -21.7300    -7.6170 ca         1 KLZ      -0.078000
     15 H1         -18.2720   -23.1290    -5.0500 ha         1 KLZ       0.152000
     16 H2         -19.3060   -18.2220    -4.6860 ha         1 KLZ       0.161000
     17 H3         -19.3990   -24.1670    -8.4280 h1         1 KLZ       0.067200
     18 H4         -18.3250   -24.5700    -7.0820 h1         1 KLZ       0.067200
     19 H5         -20.3240   -26.2550    -7.0080 hs         1 KLZ       0.206800
     20 H6         -21.7760   -15.3230    -7.5920 hn         1 KLZ       0.380400
     21 H7         -19.4150   -16.0500    -5.2140 hn         1 KLZ       0.409800
     22 H8         -20.4280   -14.8250    -5.7710 hn         1 KLZ       0.409800
     23 H9         -20.4390   -21.9820    -8.5710 ha         1 KLZ       0.146000
     24 C8         -20.7570   -16.6270    -6.6470 cf         1 KLZ       0.690500
@<TRIPOS>BOND
     1     1     2 ar  
     2     1     5 1   
     3     1    14 ar  
     4     2     3 ar  
     5     2    15 1   
     6     3     6 1   
     7     3     8 ar  
     8     4     8 1   
     9     4     9 2   
    10     4    16 1   
    11     5     7 1   
    12     5    17 1   
    13     5    18 1   
    14     7    19 1   
    15     8    13 ar  
    16     9    12 1   
    17     9    24 1   
    18    10    20 1   
    19    10    24 2   
    20    11    21 1   
    21    11    22 1   
    22    11    24 1   
    23    12    13 1   
    24    13    14 ar  
    25    14    23 1   
@<TRIPOS>SUBSTRUCTURE
     1 KLZ         1 TEMP              0 ****  ****    0 ROOT
