@<TRIPOS>MOLECULE
KM0
   31    33     1     0     0
SMALL
No Charge or Current Charge


@<TRIPOS>ATOM
      1 C1          -4.0580    -0.3350    -1.2170 ca         1 KM0      -0.080500
      2 C2          -5.3380     0.2470    -1.2180 ca         1 KM0      -0.115000
      3 C3          -5.9770     0.5450    -0.0020 ca         1 KM0      -0.096000
      4 C4          -5.3340     0.2610     1.2140 ca         1 KM0      -0.115000
      5 C5          -4.0540    -0.3210     1.2160 ca         1 KM0      -0.080500
      6 C6          -3.4100    -0.6240    -0.0000 ca         1 KM0      -0.096300
      7 C7          -2.0240    -1.2550     0.0010 c3         1 KM0       0.204900
      8 O8          -1.0450    -0.2030    -0.0080 os         1 KM0      -0.302100
      9 C9           0.3210    -0.4490    -0.0100 ca         1 KM0       0.184100
     10 C10          0.8220    -1.7710    -0.0020 ca         1 KM0      -0.224000
     11 C11          2.2040    -2.0010    -0.0040 ca         1 KM0      -0.051000
     12 C12          3.1030    -0.9250    -0.0130 ca         1 KM0       0.088000
     13 C13          2.6210     0.4050    -0.0210 ca         1 KM0      -0.043000
     14 C14          1.2180     0.6590    -0.0190 ca         1 KM0       0.251000
     15 N15          0.7330     1.9350    -0.0260 nb         1 KM0      -0.629000
     16 C16          1.5970     2.9730    -0.0350 ca         1 KM0       0.340900
     17 C17          2.9860     2.8010    -0.0370 ca         1 KM0      -0.153000
     18 C18          3.5120     1.5020    -0.0300 ca         1 KM0      -0.067000
     19 Cl19         4.8290    -1.2960    -0.0150 cl         1 KM0      -0.202000
     20 H1          -3.5700    -0.5600    -2.1630 ha         1 KM0       0.114500
     21 H2          -5.8340     0.4680    -2.1610 ha         1 KM0       0.114000
     22 H3          -6.9670     0.9950    -0.0030 ha         1 KM0       0.113000
     23 H4          -5.8270     0.4920     2.1560 ha         1 KM0       0.114000
     24 H5          -3.5620    -0.5360     2.1630 ha         1 KM0       0.114500
     25 H7          -1.9090    -1.8820     0.8940 h1         1 KM0       0.042200
     26 H7A         -1.9130    -1.8940    -0.8840 h1         1 KM0       0.042200
     27 H10          0.1580    -2.6310     0.0050 ha         1 KM0       0.124000
     28 H11          2.5850    -3.0200     0.0020 ha         1 KM0       0.128000
     29 H16          1.1590     3.9700    -0.0410 h4         1 KM0       0.023100
     30 H17          3.6410     3.6680    -0.0450 ha         1 KM0       0.126000
     31 H18          4.5910     1.3670    -0.0320 ha         1 KM0       0.132000
@<TRIPOS>BOND
     1     1     2 ar  
     2     1     6 ar  
     3     1    20 1   
     4     2     3 ar  
     5     2    21 1   
     6     3     4 ar  
     7     3    22 1   
     8     4     5 ar  
     9     4    23 1   
    10     5     6 ar  
    11     5    24 1   
    12     6     7 1   
    13     7     8 1   
    14     7    25 1   
    15     7    26 1   
    16     8     9 1   
    17     9    10 ar  
    18     9    14 ar  
    19    10    11 ar  
    20    10    27 1   
    21    11    12 ar  
    22    11    28 1   
    23    12    13 ar  
    24    12    19 1   
    25    13    14 ar  
    26    13    18 ar  
    27    14    15 ar  
    28    15    16 ar  
    29    16    17 ar  
    30    16    29 1   
    31    17    18 ar  
    32    17    30 1   
    33    18    31 1   
@<TRIPOS>SUBSTRUCTURE
     1 KM0         1 TEMP              0 ****  ****    0 ROOT
