@<TRIPOS>MOLECULE
KM0
   31    33     1     0     0
SMALL
abcg2


@<TRIPOS>ATOM
      1 C1          -3.9600    -0.3010    -1.1980 ca         1 KM0      -0.080500
      2 C2          -5.2060     0.3100    -1.2050 ca         1 KM0      -0.115000
      3 C3          -5.8430     0.6050    -0.0060 ca         1 KM0      -0.096000
      4 C4          -5.2290     0.2840     1.1980 ca         1 KM0      -0.115000
      5 C5          -3.9820    -0.3260     1.2010 ca         1 KM0      -0.080500
      6 C6          -3.3390    -0.6250     0.0040 ca         1 KM0      -0.096300
      7 C7          -1.9770    -1.2500     0.0100 c3         1 KM0       0.204900
      8 O8          -1.0270    -0.1890    -0.0020 os         1 KM0      -0.302100
      9 C9           0.2730    -0.5010    -0.0040 ca         1 KM0       0.184100
     10 C10          0.7810    -1.7760     0.0080 ca         1 KM0      -0.224000
     11 C11          2.1720    -1.9970     0.0030 ca         1 KM0      -0.051000
     12 C12          3.0440    -0.9500    -0.0130 ca         1 KM0       0.088000
     13 C13          2.5710     0.3850    -0.0240 ca         1 KM0      -0.043000
     14 C14          1.1710     0.6130    -0.0200 ca         1 KM0       0.251000
     15 N15          0.6400     1.8510    -0.0290 nb         1 KM0      -0.629000
     16 C16          1.4440     2.8800    -0.0430 ca         1 KM0       0.340900
     17 C17          2.8470     2.7690    -0.0500 ca         1 KM0      -0.153000
     18 C18          3.4060     1.5230    -0.0410 ca         1 KM0      -0.067000
     19 CL19         4.7500    -1.2570    -0.0190 cl         1 KM0      -0.202000
     20 H1          -3.4700    -0.5320    -2.1360 ha         1 KM0       0.114500
     21 H2          -5.6820     0.5520    -2.1460 ha         1 KM0       0.114000
     22 H3          -6.8150     1.0810    -0.0100 ha         1 KM0       0.113000
     23 H4          -5.7220     0.5070     2.1360 ha         1 KM0       0.114000
     24 H5          -3.5090    -0.5760     2.1430 ha         1 KM0       0.114500
     25 H7          -1.8400    -1.8700     0.9020 h1         1 KM0       0.042200
     26 H7A         -1.8400    -1.8910    -0.8670 h1         1 KM0       0.042200
     27 H10          0.1360    -2.6430     0.0210 ha         1 KM0       0.124000
     28 H11          2.5370    -3.0150     0.0110 ha         1 KM0       0.128000
     29 H16          0.9830     3.8620    -0.0500 h4         1 KM0       0.023100
     30 H17          3.4620     3.6570    -0.0610 ha         1 KM0       0.126000
     31 H18          4.4810     1.4080    -0.0470 ha         1 KM0       0.132000
@<TRIPOS>BOND
     1     1     2 ar  
     2     1     6 ar  
     3     1    20 1   
     4     2     3 ar  
     5     2    21 1   
     6     3     4 ar  
     7     3    22 1   
     8     4     5 ar  
     9     4    23 1   
    10     5     6 ar  
    11     5    24 1   
    12     6     7 1   
    13     7     8 1   
    14     7    25 1   
    15     7    26 1   
    16     8     9 1   
    17     9    10 ar  
    18     9    14 ar  
    19    10    11 ar  
    20    10    27 1   
    21    11    12 ar  
    22    11    28 1   
    23    12    13 ar  
    24    12    19 1   
    25    13    14 ar  
    26    13    18 ar  
    27    14    15 ar  
    28    15    16 ar  
    29    16    17 ar  
    30    16    29 1   
    31    17    18 ar  
    32    17    30 1   
    33    18    31 1   
@<TRIPOS>SUBSTRUCTURE
     1 KM0         1 TEMP              0 ****  ****    0 ROOT
