@<TRIPOS>MOLECULE
KM1
   31    33     1     0     0
SMALL
abcg2


@<TRIPOS>ATOM
      1 C1          -3.0600    -0.6190    -1.8740 ca         1 KM1      -0.080000
      2 C2          -4.3090    -0.0490    -2.0770 ca         1 KM1      -0.106000
      3 C3          -5.0740     0.3730    -1.0000 ca         1 KM1      -0.090000
      4 C4          -4.5690     0.2130     0.2810 ca         1 KM1       0.115000
      5 C5          -3.3240    -0.3540     0.5010 ca         1 KM1      -0.075000
      6 C6          -2.5640    -0.7760    -0.5840 ca         1 KM1      -0.086300
      7 C7          -1.2020    -1.3590    -0.3570 c3         1 KM1       0.203900
      8 O8          -0.2800    -0.2760    -0.3650 os         1 KM1      -0.302100
      9 C9           1.0130    -0.5420    -0.1530 ca         1 KM1       0.182100
     10 C10          1.5400    -1.7910     0.0590 ca         1 KM1      -0.222000
     11 C11          2.9200    -1.9620     0.2760 ca         1 KM1      -0.052000
     12 C12          3.7630    -0.8910     0.2800 ca         1 KM1       0.090000
     13 C13          3.2700     0.4190     0.0630 ca         1 KM1      -0.043000
     14 C14          1.8800     0.5960    -0.1550 ca         1 KM1       0.251000
     15 N15          1.3300     1.8080    -0.3670 nb         1 KM1      -0.630000
     16 C16          2.1070     2.8580    -0.3720 ca         1 KM1       0.340900
     17 C17          3.4970     2.7970    -0.1660 ca         1 KM1      -0.152000
     18 C18          4.0750     1.5780     0.0500 ca         1 KM1      -0.067000
     19 CL19         5.4580    -1.1370     0.5520 cl         1 KM1      -0.201000
     20 CL20        -5.5150     0.7300     1.6390 cl         1 KM1      -0.202000
     21 H1          -2.4730    -0.9480    -2.7220 ha         1 KM1       0.120000
     22 H2          -4.6940     0.0690    -3.0810 ha         1 KM1       0.120000
     23 H3          -6.0480     0.8150    -1.1570 ha         1 KM1       0.130000
     24 H5          -2.9500    -0.4750     1.5090 ha         1 KM1       0.132000
     25 H7          -1.1630    -1.8850     0.6030 h1         1 KM1       0.045200
     26 H7A         -0.9550    -2.0770    -1.1450 h1         1 KM1       0.045200
     27 H10          0.9160    -2.6740     0.0650 ha         1 KM1       0.124000
     28 H11          3.3020    -2.9600     0.4420 ha         1 KM1       0.129000
     29 H16          1.6310     3.8180    -0.5480 h4         1 KM1       0.023100
     30 H17          4.0880     3.7020    -0.1830 ha         1 KM1       0.126000
     31 H18          5.1420     1.5000     0.2090 ha         1 KM1       0.132000
@<TRIPOS>BOND
     1     1     2 ar  
     2     1     6 ar  
     3     1    21 1   
     4     2     3 ar  
     5     2    22 1   
     6     3     4 ar  
     7     3    23 1   
     8     4     5 ar  
     9     4    20 1   
    10     5     6 ar  
    11     5    24 1   
    12     6     7 1   
    13     7     8 1   
    14     7    25 1   
    15     7    26 1   
    16     8     9 1   
    17     9    10 ar  
    18     9    14 ar  
    19    10    11 ar  
    20    10    27 1   
    21    11    12 ar  
    22    11    28 1   
    23    12    13 ar  
    24    12    19 1   
    25    13    14 ar  
    26    13    18 ar  
    27    14    15 ar  
    28    15    16 ar  
    29    16    17 ar  
    30    16    29 1   
    31    17    18 ar  
    32    17    30 1   
    33    18    31 1   
@<TRIPOS>SUBSTRUCTURE
     1 KM1         1 TEMP              0 ****  ****    0 ROOT
