@<TRIPOS>MOLECULE
KM1
   31    33     1     0     0
SMALL
No Charge or Current Charge


@<TRIPOS>ATOM
      1 C1          -3.1950    -0.7580    -1.8990 ca         1 KM1      -0.080000
      2 C2          -4.4760    -0.2160    -2.1050 ca         1 KM1      -0.106000
      3 C3          -5.2030     0.3030    -1.0190 ca         1 KM1      -0.090000
      4 C4          -4.6460     0.2790     0.2700 ca         1 KM1       0.115000
      5 C5          -3.3660    -0.2630     0.4780 ca         1 KM1      -0.075000
      6 C6          -2.6330    -0.7860    -0.6060 ca         1 KM1      -0.086300
      7 C7          -1.2460    -1.3700    -0.3810 c3         1 KM1       0.203900
      8 O8          -0.3000    -0.2900    -0.3460 os         1 KM1      -0.302100
      9 C9           1.0600    -0.4880    -0.1500 ca         1 KM1       0.182100
     10 C10          1.5880    -1.7880     0.0240 ca         1 KM1      -0.222000
     11 C11          2.9640    -1.9690     0.2210 ca         1 KM1      -0.052000
     12 C12          3.8280    -0.8670     0.2470 ca         1 KM1       0.090000
     13 C13          3.3200     0.4420     0.0740 ca         1 KM1      -0.043000
     14 C14          1.9230     0.6470    -0.1280 ca         1 KM1       0.251000
     15 N15          1.4110     1.9000    -0.2960 nb         1 KM1      -0.630000
     16 C16          2.2430     2.9640    -0.2720 ca         1 KM1       0.340900
     17 C17          3.6240     2.8420    -0.0790 ca         1 KM1      -0.152000
     18 C18          4.1770     1.5660     0.0970 ca         1 KM1      -0.067000
     19 Cl19         5.5490    -1.1770     0.4990 cl         1 KM1      -0.201000
     20 Cl20        -5.5530     0.9310     1.6290 cl         1 KM1      -0.202000
     21 H1          -2.6380    -1.1550    -2.7460 ha         1 KM1       0.120000
     22 H2          -4.9050    -0.1970    -3.1050 ha         1 KM1       0.120000
     23 H3          -6.1930     0.7230    -1.1750 ha         1 KM1       0.130000
     24 H5          -2.9440    -0.2730     1.4790 ha         1 KM1       0.132000
     25 H7          -1.2350    -1.9250     0.5670 h1         1 KM1       0.045200
     26 H7A         -1.0050    -2.0700    -1.1910 h1         1 KM1       0.045200
     27 H10          0.9510    -2.6680     0.0110 ha         1 KM1       0.124000
     28 H11          3.3650    -2.9720     0.3550 ha         1 KM1       0.129000
     29 H16          1.7850     3.9430    -0.4110 h4         1 KM1       0.023100
     30 H17          4.2520     3.7280    -0.0670 ha         1 KM1       0.126000
     31 H18          5.2490     1.4680     0.2470 ha         1 KM1       0.132000
@<TRIPOS>BOND
     1     1     2 ar  
     2     1     6 ar  
     3     1    21 1   
     4     2     3 ar  
     5     2    22 1   
     6     3     4 ar  
     7     3    23 1   
     8     4     5 ar  
     9     4    20 1   
    10     5     6 ar  
    11     5    24 1   
    12     6     7 1   
    13     7     8 1   
    14     7    25 1   
    15     7    26 1   
    16     8     9 1   
    17     9    10 ar  
    18     9    14 ar  
    19    10    11 ar  
    20    10    27 1   
    21    11    12 ar  
    22    11    28 1   
    23    12    13 ar  
    24    12    19 1   
    25    13    14 ar  
    26    13    18 ar  
    27    14    15 ar  
    28    15    16 ar  
    29    16    17 ar  
    30    16    29 1   
    31    17    18 ar  
    32    17    30 1   
    33    18    31 1   
@<TRIPOS>SUBSTRUCTURE
     1 KM1         1 TEMP              0 ****  ****    0 ROOT
