@<TRIPOS>MOLECULE
KM2
   33    34     1     0     0
SMALL
No Charge or Current Charge


@<TRIPOS>ATOM
      1 C10        -20.0450   -22.4050    -6.3210 ca         1 KM2      -0.070000
      2 C15        -19.1170   -21.9860    -1.7140 c3         1 KM2       0.134800
      3 C17        -16.5710   -21.5100    -1.6280 c3         1 KM2      -0.104100
      4 S01        -18.7380   -18.2560    -4.9400 ss         1 KM2       0.045400
      5 C02        -19.1680   -19.9260    -5.3770 ca         1 KM2      -0.220000
      6 C03        -20.0270   -19.9890    -6.4570 ca         1 KM2      -0.040800
      7 C04        -20.3760   -18.6910    -6.9820 cc         1 KM2      -0.121200
      8 C05        -19.7680   -17.6550    -6.2820 cd         1 KM2      -0.121000
      9 C06        -19.9240   -16.2220    -6.5740 cf         1 KM2       0.680500
     10 N07        -20.6670   -15.8000    -7.5170 n2         1 KM2      -0.812100
     11 N08        -19.2630   -15.3560    -5.8120 nv         1 KM2      -1.071200
     12 C09        -20.4810   -21.2220    -6.9470 ca         1 KM2      -0.121000
     13 C11        -19.1680   -22.3390    -5.2180 ca         1 KM2      -0.191000
     14 C12        -18.7240   -21.0920    -4.7330 ca         1 KM2       0.356000
     15 N13        -17.8560   -20.9970    -3.6460 nu         1 KM2      -0.968200
     16 C14        -17.7660   -21.9300    -2.5080 c3         1 KM2       0.234500
     17 H1         -20.3840   -23.3710    -6.6900 ha         1 KM2       0.109000
     18 H2         -19.3230   -20.9950    -1.2870 h1         1 KM2       0.042200
     19 H3         -19.9330   -22.2240    -2.4110 h1         1 KM2       0.042200
     20 H4         -16.4260   -22.2210    -0.8060 hc         1 KM2       0.047367
     21 H5         -15.6460   -21.4870    -2.2160 hc         1 KM2       0.047367
     22 H6         -16.7320   -20.5160    -1.1940 hc         1 KM2       0.047367
     23 H7         -21.0380   -18.5270    -7.8290 ha         1 KM2       0.221000
     24 H8         -20.7490   -14.7830    -7.4240 hn         1 KM2       0.371400
     25 H9         -18.5790   -15.7160    -5.1570 hn         1 KM2       0.460000
     26 H10        -19.1210   -14.4060    -6.1340 hn         1 KM2       0.460000
     27 H11        -21.1570   -21.2660    -7.7980 ha         1 KM2       0.120000
     28 H12        -18.8350   -23.2590    -4.7500 ha         1 KM2       0.111000
     29 H13        -17.5430   -20.0460    -3.4600 hn         1 KM2       0.480000
     30 H14        -17.5530   -22.9380    -2.8910 h1         1 KM2       0.043700
     31 H15        -20.0840   -22.9920    -0.1880 hn         1 KM2       0.395000
     32 H16        -19.0670   -23.9320    -1.0140 hn         1 KM2       0.395000
     33 N16        -19.1490   -22.9900    -0.6130 n8         1 KM2      -1.003200
@<TRIPOS>BOND
     1     1    12 ar  
     2     1    13 ar  
     3     1    17 1   
     4     2    16 1   
     5     2    18 1   
     6     2    19 1   
     7     2    33 1   
     8     3    16 1   
     9     3    20 1   
    10     3    21 1   
    11     3    22 1   
    12     4     5 1   
    13     4     8 1   
    14     5     6 ar  
    15     5    14 ar  
    16     6     7 1   
    17     6    12 ar  
    18     7     8 2   
    19     7    23 1   
    20     8     9 1   
    21     9    10 2   
    22     9    11 1   
    23    10    24 1   
    24    11    25 1   
    25    11    26 1   
    26    12    27 1   
    27    13    14 ar  
    28    13    28 1   
    29    14    15 1   
    30    15    16 1   
    31    15    29 1   
    32    16    30 1   
    33    31    33 1   
    34    32    33 1   
@<TRIPOS>SUBSTRUCTURE
     1 KM2         1 TEMP              0 ****  ****    0 ROOT
