@<TRIPOS>MOLECULE
KM2
   33    34     1     0     0
SMALL
abcg2


@<TRIPOS>ATOM
      1 C10        -20.1200   -22.2670    -6.1520 ca         1 KM2      -0.070000
      2 C15        -19.0720   -22.3400    -1.5790 c3         1 KM2       0.134800
      3 C17        -16.7600   -21.3320    -1.5780 c3         1 KM2      -0.104100
      4 S01        -19.0450   -18.1250    -4.8740 ss         1 KM2       0.045400
      5 C02        -19.3770   -19.7840    -5.2540 ca         1 KM2      -0.220000
      6 C03        -20.0550   -19.9080    -6.4740 ca         1 KM2      -0.040800
      7 C04        -20.2750   -18.6330    -7.0850 cc         1 KM2      -0.121200
      8 C05        -19.7860   -17.6010    -6.3580 cd         1 KM2      -0.121000
      9 C06        -19.8500   -16.1680    -6.7030 cf         1 KM2       0.680500
     10 N07        -20.7900   -15.7740    -7.4700 n2         1 KM2      -0.812100
     11 N08        -18.9000   -15.3930    -6.0960 nv         1 KM2      -1.071200
     12 C09        -20.4320   -21.1770    -6.9350 ca         1 KM2      -0.121000
     13 C11        -19.4400   -22.1390    -4.9360 ca         1 KM2      -0.191000
     14 C12        -19.0410   -20.8920    -4.4520 ca         1 KM2       0.356000
     15 N13        -18.3840   -20.7080    -3.2650 nu         1 KM2      -0.968200
     16 C14        -17.9210   -21.8060    -2.4360 c3         1 KM2       0.234500
     17 H1         -20.3990   -23.2600    -6.4800 ha         1 KM2       0.109000
     18 H2         -19.3000   -21.5940    -0.8130 h1         1 KM2       0.042200
     19 H3         -19.9730   -22.4310    -2.2010 h1         1 KM2       0.042200
     20 H4         -16.4580   -22.1230    -0.8950 hc         1 KM2       0.047367
     21 H5         -15.8980   -21.0600    -2.1880 hc         1 KM2       0.047367
     22 H6         -17.0470   -20.4620    -0.9830 hc         1 KM2       0.047367
     23 H7         -20.7710   -18.5000    -8.0360 ha         1 KM2       0.221000
     24 H8         -20.6990   -14.7840    -7.6800 hn         1 KM2       0.371400
     25 H9         -17.9940   -15.8010    -5.9260 hn         1 KM2       0.460000
     26 H10        -18.8460   -14.4280    -6.3870 hn         1 KM2       0.460000
     27 H11        -20.9580   -21.2900    -7.8740 ha         1 KM2       0.120000
     28 H12        -19.2240   -23.0340    -4.3690 ha         1 KM2       0.111000
     29 H13        -17.8500   -19.8580    -3.1810 hn         1 KM2       0.480000
     30 H14        -17.5540   -22.6220    -3.0740 h1         1 KM2       0.043700
     31 H15        -19.4030   -23.8430    -0.2560 hn         1 KM2       0.395000
     32 H16        -18.6680   -24.3280    -1.6070 hn         1 KM2       0.395000
     33 N16        -18.6910   -23.5800    -0.9250 n8         1 KM2      -1.003200
@<TRIPOS>BOND
     1     1    12 ar  
     2     1    13 ar  
     3     1    17 1   
     4     2    16 1   
     5     2    18 1   
     6     2    19 1   
     7     2    33 1   
     8     3    16 1   
     9     3    20 1   
    10     3    21 1   
    11     3    22 1   
    12     4     5 1   
    13     4     8 1   
    14     5     6 ar  
    15     5    14 ar  
    16     6     7 1   
    17     6    12 ar  
    18     7     8 2   
    19     7    23 1   
    20     8     9 1   
    21     9    10 2   
    22     9    11 1   
    23    10    24 1   
    24    11    25 1   
    25    11    26 1   
    26    12    27 1   
    27    13    14 ar  
    28    13    28 1   
    29    14    15 1   
    30    15    16 1   
    31    15    29 1   
    32    16    30 1   
    33    31    33 1   
    34    32    33 1   
@<TRIPOS>SUBSTRUCTURE
     1 KM2         1 TEMP              0 ****  ****    0 ROOT
