@<TRIPOS>MOLECULE
KM5
   62    65     1     0     0
SMALL
bcc


@<TRIPOS>ATOM
      1 CAO          7.3140   -18.0750    15.7790 ca         1 KM5      -0.225000
      2 CAS          6.1510   -17.2900    15.9080 ca         1 KM5       0.233600
      3 CAT          7.8250   -18.7770    16.8530 ca         1 KM5      -0.044000
      4 CAU          7.2160   -18.7470    18.1060 ca         1 KM5      -0.208600
      5 CAV          9.4160   -20.6530    20.5130 c6         1 KM5       0.104500
      6 CBG         13.3570   -18.0670    23.5160 c3         1 KM5       0.128700
      7 OBE         12.9540   -18.4260    22.1940 os         1 KM5      -0.423900
      8 OBF         11.7010   -20.0860    22.9940 o          1 KM5      -0.530000
      9 CAZ         11.7400   -19.6540    20.6130 c6         1 KM5      -0.118700
     10 CBA         10.9060   -20.9180    20.3960 c6         1 KM5      -0.084400
     11 CAY         10.9750   -18.4140    20.0960 c6         1 KM5      -0.084400
     12 CAX         10.0170   -18.7970    18.9790 c6         1 KM5       0.104500
     13 NAW          8.9940   -19.7070    19.4820 n          1 KM5      -0.482800
     14 CBB          7.6680   -19.5720    19.2560 c          1 KM5       0.688700
     15 OBC          6.8410   -20.1400    19.9660 o          1 KM5      -0.606100
     16 CAQ          6.0520   -17.9900    18.2330 ca         1 KM5      -0.044000
     17 CAR          5.5370   -17.2670    17.1760 ca         1 KM5      -0.225000
     18 N10          5.6290   -16.5980    14.8540 nh         1 KM5      -0.676000
     19 CAP          4.5910   -15.5990    15.0340 c3         1 KM5       0.230800
     20 CBH          3.1830   -16.1660    14.9160 c3         1 KM5      -0.114100
     21 C9           6.2230   -16.6720    13.5510 c3         1 KM5       0.190500
     22 C6           7.4110   -15.7560    13.3730 ca         1 KM5       0.211300
     23 N5           7.7680   -14.9630    14.3500 nb         1 KM5      -0.594000
     24 C4A          8.8130   -14.1630    14.1430 ca         1 KM5       0.025000
     25 C4           9.2660   -13.2680    15.1800 ca         1 KM5       0.728900
     26 N4           8.6350   -13.2620    16.3480 nv         1 KM5      -0.945500
     27 N3          10.2890   -12.4720    14.9670 nb         1 KM5      -0.879000
     28 C2          10.8910   -12.5300    13.7570 ca         1 KM5       0.978900
     29 N2          11.9250   -11.6950    13.5960 nv         1 KM5      -0.957500
     30 N1          10.5710   -13.3140    12.7360 nb         1 KM5      -0.802000
     31 C8A          9.5290   -14.1310    12.9370 ca         1 KM5       0.642000
     32 N8           9.1550   -14.9570    11.9350 nb         1 KM5      -0.634000
     33 C7           8.1310   -15.7390    12.1570 ca         1 KM5       0.351900
     34 H1           7.8410   -18.1400    14.8380 ha         1 KM5       0.132500
     35 H2           8.7160   -19.3720    16.6930 ha         1 KM5       0.136500
     36 H3           9.1750   -20.2730    21.5120 h1         1 KM5       0.055700
     37 H4           8.8640   -21.5840    20.3880 h1         1 KM5       0.055700
     38 H5          14.0350   -17.2270    23.4040 h1         1 KM5       0.048367
     39 H6          12.5040   -17.7630    24.1220 h1         1 KM5       0.048367
     40 H7          13.8740   -18.8870    24.0120 h1         1 KM5       0.048367
     41 H8          12.6710   -19.7410    20.0460 hc         1 KM5       0.076700
     42 H9          11.1180   -21.3180    19.4030 hc         1 KM5       0.060450
     43 H10         11.1850   -21.7000    21.1040 hc         1 KM5       0.060450
     44 H11         11.6690   -17.6600    19.7270 hc         1 KM5       0.060450
     45 H12         10.3940   -17.9460    20.8960 hc         1 KM5       0.060450
     46 H13         10.5740   -19.2470    18.1500 h1         1 KM5       0.055700
     47 H14          9.5450   -17.8950    18.5950 h1         1 KM5       0.055700
     48 H15          5.5320   -17.9580    19.1830 ha         1 KM5       0.136500
     49 H16          4.6320   -16.7000    17.3410 ha         1 KM5       0.132500
     50 H17          4.7360   -14.8290    14.2750 h1         1 KM5       0.047200
     51 H18          4.7260   -15.0920    15.9910 h1         1 KM5       0.047200
     52 H19          2.4440   -15.3730    15.0390 hc         1 KM5       0.042367
     53 H20          3.0280   -16.6190    13.9360 hc         1 KM5       0.042367
     54 H21          2.9870   -16.9270    15.6720 hc         1 KM5       0.042367
     55 H22          5.4620   -16.4150    12.8090 h1         1 KM5       0.062700
     56 H23          6.5100   -17.7000    13.3110 h1         1 KM5       0.062700
     57 H24          8.9270   -12.6470    17.0880 hn         1 KM5       0.457800
     58 H25          7.8540   -13.8770    16.5010 hn         1 KM5       0.457800
     59 H26         12.4150   -11.6530    12.7200 hn         1 KM5       0.453300
     60 H27         12.1940   -11.0690    14.3330 hn         1 KM5       0.453300
     61 H28          7.8350   -16.4030    11.3500 h4         1 KM5       0.027100
     62 CBD         12.1140   -19.4440    22.0600 c          1 KM5       0.639100
@<TRIPOS>BOND
     1     1     2 ar  
     2     1     3 ar  
     3     1    34 1   
     4     2    17 ar  
     5     2    18 1   
     6     3     4 ar  
     7     3    35 1   
     8     4    14 1   
     9     4    16 ar  
    10     5    10 1   
    11     5    13 1   
    12     5    36 1   
    13     5    37 1   
    14     6     7 1   
    15     6    38 1   
    16     6    39 1   
    17     6    40 1   
    18     7    62 1   
    19     8    62 2   
    20     9    10 1   
    21     9    11 1   
    22     9    41 1   
    23     9    62 1   
    24    10    42 1   
    25    10    43 1   
    26    11    12 1   
    27    11    44 1   
    28    11    45 1   
    29    12    13 1   
    30    12    46 1   
    31    12    47 1   
    32    13    14 1   
    33    14    15 2   
    34    16    17 ar  
    35    16    48 1   
    36    17    49 1   
    37    18    19 1   
    38    18    21 1   
    39    19    20 1   
    40    19    50 1   
    41    19    51 1   
    42    20    52 1   
    43    20    53 1   
    44    20    54 1   
    45    21    22 1   
    46    21    55 1   
    47    21    56 1   
    48    22    23 ar  
    49    22    33 ar  
    50    23    24 ar  
    51    24    25 ar  
    52    24    31 ar  
    53    25    26 1   
    54    25    27 ar  
    55    26    57 1   
    56    26    58 1   
    57    27    28 ar  
    58    28    29 1   
    59    28    30 ar  
    60    29    59 1   
    61    29    60 1   
    62    30    31 ar  
    63    31    32 ar  
    64    32    33 ar  
    65    33    61 1   
@<TRIPOS>SUBSTRUCTURE
     1 KM5         1 TEMP              0 ****  ****    0 ROOT
