@<TRIPOS>MOLECULE
KM5
   62    65     1     0     0
SMALL
No Charge or Current Charge


@<TRIPOS>ATOM
      1 CAO          8.0560   -17.6160    16.5610 ca         1 KM5      -0.207000
      2 CAS          6.8060   -16.9800    16.6670 ca         1 KM5       0.372000
      3 CAT          8.4090   -18.6610    17.4310 ca         1 KM5      -0.026000
      4 CAU          7.5160   -19.0840    18.4400 ca         1 KM5      -0.208600
      5 CAV          9.5810   -21.6940    20.4610 c6         1 KM5       0.104500
      6 CBG         13.5150   -21.1510    24.7530 c3         1 KM5       0.151900
      7 OBE         13.1980   -20.8770    23.3750 os         1 KM5      -0.447100
      8 OBF         10.9630   -21.2230    23.7460 o          1 KM5      -0.481000
      9 CAZ         11.6590   -20.6320    21.4950 c6         1 KM5      -0.118700
     10 CBA         11.1070   -21.8300    20.6750 c6         1 KM5      -0.084400
     11 CAY         10.8990   -19.2980    21.2520 c6         1 KM5      -0.084400
     12 CAX         10.1660   -19.2980    19.8900 c6         1 KM5       0.104500
     13 NAW          9.1990   -20.4340    19.7520 n          1 KM5      -0.415800
     14 CBB          7.8520   -20.2200    19.3820 c          1 KM5       0.621700
     15 OBC          6.9760   -20.9920    19.7520 o          1 KM5      -0.606100
     16 CAQ          6.2540   -18.4640    18.5290 ca         1 KM5      -0.026000
     17 CAR          5.9100   -17.4180    17.6570 ca         1 KM5      -0.207000
     18 N10          6.4540   -15.9240    15.7920 nh         1 KM5      -0.814400
     19 CAP          5.7220   -14.7330    16.2850 c3         1 KM5       0.230800
     20 CBH          4.2600   -14.6620    15.8100 c3         1 KM5      -0.114100
     21 C9           6.7950   -15.9710    14.3380 c3         1 KM5       0.190500
     22 C6           7.6440   -14.8070    13.8090 ca         1 KM5       0.211300
     23 N5           7.2010   -14.1430    12.7130 nb         1 KM5      -0.594000
     24 C4A          7.9670   -13.1080    12.2560 ca         1 KM5       0.024000
     25 C4           7.6020   -12.3380    11.1140 ca         1 KM5       0.465900
     26 N4           6.4690   -12.5790    10.3940 nv         1 KM5      -1.055900
     27 N3           8.3270   -11.3150    10.6560 nb         1 KM5      -0.353000
     28 C2           9.4370   -11.0590    11.3420 ca         1 KM5       0.452900
     29 N2          10.1800   -10.0300    10.8860 nv         1 KM5      -1.067900
     30 N1           9.9060   -11.6970    12.4210 nb         1 KM5      -0.276000
     31 C8A          9.1870   -12.7330    12.9070 ca         1 KM5       0.116000
     32 N8           9.6030   -13.4170    13.9980 nb         1 KM5      -0.108000
     33 C7           8.8450   -14.4390    14.4420 ca         1 KM5       0.088900
     34 H1           8.7670   -17.3010    15.8050 ha         1 KM5       0.114500
     35 H2           9.3710   -19.1520    17.3000 ha         1 KM5       0.118500
     36 H3           9.0730   -21.7250    21.4350 h1         1 KM5       0.055700
     37 H4           9.2250   -22.5550    19.8770 h1         1 KM5       0.055700
     38 H5          14.5950   -21.0610    24.9220 h1         1 KM5       0.048367
     39 H6          13.0070   -20.4420    25.4200 h1         1 KM5       0.048367
     40 H7          13.2110   -22.1690    25.0300 h1         1 KM5       0.048367
     41 H8          12.6720   -20.4640    21.1020 hc         1 KM5       0.076700
     42 H9          11.5990   -21.8670    19.6930 hc         1 KM5       0.060450
     43 H10         11.3400   -22.7820    21.1720 hc         1 KM5       0.060450
     44 H11         11.5910   -18.4460    21.3150 hc         1 KM5       0.060450
     45 H12         10.1530   -19.1460    22.0450 hc         1 KM5       0.060450
     46 H13         10.9060   -19.3570    19.0790 h1         1 KM5       0.055700
     47 H14          9.6400   -18.3380    19.7870 h1         1 KM5       0.055700
     48 H15          5.5380   -18.7860    19.2830 ha         1 KM5       0.118500
     49 H16          4.9320   -16.9570    17.7480 ha         1 KM5       0.114500
     50 H17          6.2410   -13.8200    15.9640 h1         1 KM5       0.047200
     51 H18          5.7330   -14.7180    17.3840 h1         1 KM5       0.047200
     52 H19          3.7640   -13.7870    16.2470 hc         1 KM5       0.042367
     53 H20          4.2080   -14.5730    14.7190 hc         1 KM5       0.042367
     54 H21          3.7070   -15.5580    16.1140 hc         1 KM5       0.042367
     55 H22          5.8630   -16.0160    13.7580 h1         1 KM5       0.062700
     56 H23          7.3260   -16.9020    14.1020 h1         1 KM5       0.062700
     57 H24          6.1060   -11.8270     9.8150 hn         1 KM5       0.513000
     58 H25          5.7840   -13.1980    10.8210 hn         1 KM5       0.513000
     59 H26         11.1400    -9.9560    11.2140 hn         1 KM5       0.508500
     60 H27          9.9950    -9.6870     9.9470 hn         1 KM5       0.508500
     61 H28          9.2070   -14.9650    15.3230 h4         1 KM5       0.027100
     62 CBD         11.8840   -20.9450    22.9880 c          1 KM5       0.590100
@<TRIPOS>BOND
     1     1     2 ar  
     2     1     3 ar  
     3     1    34 1   
     4     2    17 ar  
     5     2    18 1   
     6     3     4 ar  
     7     3    35 1   
     8     4    14 1   
     9     4    16 ar  
    10     5    10 1   
    11     5    13 1   
    12     5    36 1   
    13     5    37 1   
    14     6     7 1   
    15     6    38 1   
    16     6    39 1   
    17     6    40 1   
    18     7    62 1   
    19     8    62 2   
    20     9    10 1   
    21     9    11 1   
    22     9    41 1   
    23     9    62 1   
    24    10    42 1   
    25    10    43 1   
    26    11    12 1   
    27    11    44 1   
    28    11    45 1   
    29    12    13 1   
    30    12    46 1   
    31    12    47 1   
    32    13    14 1   
    33    14    15 2   
    34    16    17 ar  
    35    16    48 1   
    36    17    49 1   
    37    18    19 1   
    38    18    21 1   
    39    19    20 1   
    40    19    50 1   
    41    19    51 1   
    42    20    52 1   
    43    20    53 1   
    44    20    54 1   
    45    21    22 1   
    46    21    55 1   
    47    21    56 1   
    48    22    23 ar  
    49    22    33 ar  
    50    23    24 ar  
    51    24    25 ar  
    52    24    31 ar  
    53    25    26 1   
    54    25    27 ar  
    55    26    57 1   
    56    26    58 1   
    57    27    28 ar  
    58    28    29 1   
    59    28    30 ar  
    60    29    59 1   
    61    29    60 1   
    62    30    31 ar  
    63    31    32 ar  
    64    32    33 ar  
    65    33    61 1   
@<TRIPOS>SUBSTRUCTURE
     1 KM5         1 TEMP              0 ****  ****    0 ROOT
