@<TRIPOS>MOLECULE
KM6
   17    18     1     0     0
SMALL
No Charge or Current Charge


@<TRIPOS>ATOM
      1 C11        -14.2730    -4.3280     1.8750 cc         1 KM6       0.406900
      2 C2         -17.8360    -0.4570    -1.6100 ca         1 KM6       0.139000
      3 C3         -16.4550    -0.3600    -1.3900 ca         1 KM6      -0.112500
      4 C4         -15.8000    -1.3070    -0.5820 ca         1 KM6      -0.059500
      5 C5         -16.5260    -2.3650     0.0140 ca         1 KM6      -0.144500
      6 C6         -17.9180    -2.4510    -0.2170 ca         1 KM6      -0.059500
      7 C7         -18.5680    -1.5010    -1.0250 ca         1 KM6      -0.112500
      8 C8         -15.8500    -3.3590     0.8590 cc         1 KM6       0.479500
      9 N9         -16.3940    -4.3950     1.4780 nd         1 KM6      -0.360000
     10 N10        -15.3700    -5.0250     2.1380 nd         1 KM6      -0.351000
     11 O19        -14.5120    -3.2600     1.0690 os         1 KM6      -0.280000
     12 H1         -13.2640    -4.5160     2.2190 h5         1 KM6       0.093100
     13 H2         -15.8900     0.4500    -1.8450 ha         1 KM6       0.136000
     14 H3         -14.7270    -1.2130    -0.4240 ha         1 KM6       0.137500
     15 H4         -18.5030    -3.2540     0.2290 ha         1 KM6       0.137500
     16 H5         -19.6390    -1.5740    -1.1970 ha         1 KM6       0.136000
     17 Cl1        -18.6510     0.7300    -2.6200 cl         1 KM6      -0.188000
@<TRIPOS>BOND
     1     1    10 2   
     2     1    11 1   
     3     1    12 1   
     4     2     3 ar  
     5     2     7 ar  
     6     2    17 1   
     7     3     4 ar  
     8     3    13 1   
     9     4     5 ar  
    10     4    14 1   
    11     5     6 ar  
    12     5     8 1   
    13     6     7 ar  
    14     6    15 1   
    15     7    16 1   
    16     8     9 2   
    17     8    11 1   
    18     9    10 1   
@<TRIPOS>SUBSTRUCTURE
     1 KM6         1 TEMP              0 ****  ****    0 ROOT
