@<TRIPOS>MOLECULE
KM6
   17    18     1     0     0
SMALL
abcg2


@<TRIPOS>ATOM
      1 C11        -14.3130    -4.3160     1.8610 cc         1 KM6       0.406900
      2 C2         -17.8160    -0.4880    -1.5860 ca         1 KM6       0.139000
      3 C3         -16.4500    -0.3770    -1.3810 ca         1 KM6      -0.112500
      4 C4         -15.8050    -1.3080    -0.5840 ca         1 KM6      -0.059500
      5 C5         -16.5230    -2.3470     0.0050 ca         1 KM6      -0.144500
      6 C6         -17.8980    -2.4420    -0.2130 ca         1 KM6      -0.059500
      7 C7         -18.5470    -1.5150    -1.0060 ca         1 KM6      -0.112500
      8 C8         -15.8700    -3.3390     0.8410 cc         1 KM6       0.479500
      9 N9         -16.3910    -4.3600     1.4310 nd         1 KM6      -0.360000
     10 N10        -15.3750    -4.9930     2.0940 nd         1 KM6      -0.351000
     11 O19        -14.5520    -3.2560     1.0780 os         1 KM6      -0.280000
     12 H1         -13.3080    -4.4950     2.2080 h5         1 KM6       0.093100
     13 H2         -15.8870     0.4270    -1.8370 ha         1 KM6       0.136000
     14 H3         -14.7390    -1.2110    -0.4320 ha         1 KM6       0.137500
     15 H4         -18.4660    -3.2440     0.2390 ha         1 KM6       0.137500
     16 H5         -19.6130    -1.5940    -1.1710 ha         1 KM6       0.136000
     17 CL1        -18.6240     0.6740    -2.5770 cl         1 KM6      -0.188000
@<TRIPOS>BOND
     1     1    10 2   
     2     1    11 1   
     3     1    12 1   
     4     2     3 ar  
     5     2     7 ar  
     6     2    17 1   
     7     3     4 ar  
     8     3    13 1   
     9     4     5 ar  
    10     4    14 1   
    11     5     6 ar  
    12     5     8 1   
    13     6     7 ar  
    14     6    15 1   
    15     7    16 1   
    16     8     9 2   
    17     8    11 1   
    18     9    10 1   
@<TRIPOS>SUBSTRUCTURE
     1 KM6         1 TEMP              0 ****  ****    0 ROOT
