@<TRIPOS>MOLECULE
KM7
   45    46     1     0     0
SMALL
No Charge or Current Charge


@<TRIPOS>ATOM
      1 C02         -4.9930    -2.1310     0.3530 ca         1 KM7       0.599900
      2 C03         -6.1260    -1.3260     0.2180 ca         1 KM7      -0.231000
      3 C04         -5.9620    -0.0180    -0.2600 ca         1 KM7       0.001700
      4 C05         -4.6550     0.3960    -0.5670 ca         1 KM7      -0.214000
      5 C06         -3.5840    -0.5000    -0.3900 ca         1 KM7       0.396300
      6 C07         -7.1480     0.9160    -0.4310 c3         1 KM7      -0.053800
      7 C08         -2.1580    -0.0770    -0.7080 c3         1 KM7      -0.124700
      8 C09         -1.5150     0.7390     0.4350 c3         1 KM7      -0.029100
      9 C11         -0.0990     1.1810     0.0940 ca         1 KM7      -0.053300
     10 C12          0.1320     2.4390    -0.4940 ca         1 KM7      -0.148000
     11 C13          1.4390     2.8380    -0.8140 ca         1 KM7       0.169000
     12 C14          2.5250     1.9900    -0.5540 ca         1 KM7      -0.138000
     13 C15          2.3040     0.7310     0.0310 ca         1 KM7       0.062000
     14 C16          0.9940     0.3290     0.3530 ca         1 KM7      -0.103000
     15 C17          3.4100    -0.1420     0.2950 cg         1 KM7      -0.125000
     16 C18          4.3540    -0.8770     0.5110 c1         1 KM7      -0.104100
     17 C19          5.5270    -1.7310     0.7540 c3         1 KM7       0.248900
     18 C21          6.8740    -0.9860    -1.1990 c3         1 KM7       0.146600
     19 C22          7.2190    -3.2210    -0.2370 c3         1 KM7       0.146600
     20 F13          1.6520     4.0460    -1.3780 f          1 KM7      -0.180000
     21 N01         -3.7540    -1.7590     0.0710 nb         1 KM7      -0.754000
     22 N02         -5.0300    -3.3870     0.8040 nv         1 KM7      -1.052900
     23 N20          6.2520    -2.1280    -0.4830 n3         1 KM7      -0.704600
     24 H1          -7.1090    -1.7090     0.4760 ha         1 KM7       0.119000
     25 H2          -4.4670     1.4000    -0.9370 ha         1 KM7       0.122000
     26 H3          -7.3420     1.4730     0.4930 hc         1 KM7       0.046700
     27 H4          -6.9710     1.6440    -1.2320 hc         1 KM7       0.046700
     28 H5          -8.0590     0.3600    -0.6860 hc         1 KM7       0.046700
     29 H6          -1.5350    -0.9550    -0.9160 hc         1 KM7       0.057700
     30 H7          -2.1510     0.5260    -1.6240 hc         1 KM7       0.057700
     31 H8          -2.1420     1.6130     0.6520 hc         1 KM7       0.059200
     32 H9          -1.5100     0.1330     1.3500 hc         1 KM7       0.059200
     33 H10         -0.6990     3.1080    -0.7060 ha         1 KM7       0.131000
     34 H11          3.5320     2.3100    -0.8080 ha         1 KM7       0.136000
     35 H12          0.8230    -0.6470     0.8020 ha         1 KM7       0.130000
     36 H13          6.2040    -1.2050     1.4420 h1         1 KM7       0.049700
     37 H14          5.1700    -2.6270     1.2810 h1         1 KM7       0.049700
     38 H15          7.3660    -1.3290    -2.1200 h1         1 KM7       0.033700
     39 H16          6.1240    -0.2370    -1.4850 h1         1 KM7       0.033700
     40 H17          7.6300    -0.4940    -0.5720 h1         1 KM7       0.033700
     41 H18          8.0180    -2.8930     0.4430 h1         1 KM7       0.033700
     42 H19          6.7190    -4.0890     0.2130 h1         1 KM7       0.033700
     43 H20          7.6820    -3.5500    -1.1780 h1         1 KM7       0.033700
     44 H21         -5.8320    -3.6600     1.3600 hn         1 KM7       0.467500
     45 H22         -4.1340    -3.7730     1.0750 hn         1 KM7       0.467500
@<TRIPOS>BOND
     1     1     2 ar  
     2     1    21 ar  
     3     1    22 1   
     4     2     3 ar  
     5     2    24 1   
     6     3     4 ar  
     7     3     6 1   
     8     4     5 ar  
     9     4    25 1   
    10     5     7 1   
    11     5    21 ar  
    12     6    26 1   
    13     6    27 1   
    14     6    28 1   
    15     7     8 1   
    16     7    29 1   
    17     7    30 1   
    18     8     9 1   
    19     8    31 1   
    20     8    32 1   
    21     9    10 ar  
    22     9    14 ar  
    23    10    11 ar  
    24    10    33 1   
    25    11    12 ar  
    26    11    20 1   
    27    12    13 ar  
    28    12    34 1   
    29    13    14 ar  
    30    13    15 1   
    31    14    35 1   
    32    15    16 3   
    33    16    17 1   
    34    17    23 1   
    35    17    36 1   
    36    17    37 1   
    37    18    23 1   
    38    18    38 1   
    39    18    39 1   
    40    18    40 1   
    41    19    23 1   
    42    19    41 1   
    43    19    42 1   
    44    19    43 1   
    45    22    44 1   
    46    22    45 1   
@<TRIPOS>SUBSTRUCTURE
     1 KM7         1 TEMP              0 ****  ****    0 ROOT
