@<TRIPOS>MOLECULE
KM7
   45    46     1     0     0
SMALL
bcc


@<TRIPOS>ATOM
      1 C02         -4.5270    -2.0050     0.5650 ca         1 KM7       0.665200
      2 C03         -5.7220    -1.5120     0.0120 ca         1 KM7      -0.314300
      3 C04         -5.6810    -0.3790    -0.7730 ca         1 KM7       0.001700
      4 C05         -4.4370     0.2270    -0.9910 ca         1 KM7      -0.297300
      5 C06         -3.3110    -0.3270    -0.4120 ca         1 KM7       0.461600
      6 C07         -6.9270     0.2060    -1.3630 c3         1 KM7      -0.053800
      7 C08         -1.9540     0.2920    -0.5960 c3         1 KM7      -0.124700
      8 C09         -1.3970     0.8460     0.7220 c3         1 KM7      -0.029100
      9 C11         -0.0150     1.4070     0.5440 ca         1 KM7      -0.053300
     10 C12          0.1690     2.7600     0.2700 ca         1 KM7      -0.166000
     11 C13          1.4500     3.2380     0.0700 ca         1 KM7       0.133900
     12 C14          2.5650     2.4310     0.1260 ca         1 KM7      -0.156000
     13 C15          2.3830     1.0730     0.4010 ca         1 KM7       0.062000
     14 C16          1.0960     0.5740     0.6080 ca         1 KM7      -0.121000
     15 C17          3.5110     0.2030     0.4690 cg         1 KM7      -0.125000
     16 C18          4.4600    -0.5380     0.5240 c1         1 KM7      -0.104100
     17 C19          5.6090    -1.4360     0.5920 c3         1 KM7       0.248900
     18 C21          5.8790    -1.6910    -1.7790 c3         1 KM7       0.146600
     19 C22          6.6350    -3.3970    -0.2870 c3         1 KM7       0.146600
     20 F13          1.6150     4.5450    -0.1870 f          1 KM7      -0.144900
     21 N01         -3.3540    -1.4190     0.3540 nb         1 KM7      -0.754000
     22 N02         -4.5250    -3.1490     1.3110 nv         1 KM7      -0.942500
     23 N20          5.6440    -2.3680    -0.5210 n3         1 KM7      -0.704600
     24 H1          -6.6600    -2.0200     0.2040 ha         1 KM7       0.137000
     25 H2          -4.3570     1.1140    -1.6060 ha         1 KM7       0.140000
     26 H3          -7.1990     1.1260    -0.8440 hc         1 KM7       0.046700
     27 H4          -6.7830     0.4620    -2.4130 hc         1 KM7       0.046700
     28 H5          -7.7700    -0.4790    -1.2900 hc         1 KM7       0.046700
     29 H6          -1.2660    -0.4640    -0.9860 hc         1 KM7       0.057700
     30 H7          -2.0040     1.0900    -1.3400 hc         1 KM7       0.057700
     31 H8          -2.0670     1.6220     1.1000 hc         1 KM7       0.059200
     32 H9          -1.3820     0.0460     1.4630 hc         1 KM7       0.059200
     33 H10         -0.6760     3.4350     0.2180 ha         1 KM7       0.149000
     34 H11          3.5540     2.8380    -0.0370 ha         1 KM7       0.154000
     35 H12          0.9650    -0.4800     0.8240 ha         1 KM7       0.148000
     36 H13          6.5290    -0.8320     0.6630 h1         1 KM7       0.049700
     37 H14          5.5460    -2.0060     1.5240 h1         1 KM7       0.049700
     38 H15          5.8590    -2.4120    -2.5960 h1         1 KM7       0.033700
     39 H16          5.0960    -0.9550    -1.9690 h1         1 KM7       0.033700
     40 H17          6.8480    -1.1680    -1.8100 h1         1 KM7       0.033700
     41 H18          7.6620    -3.0060    -0.2160 h1         1 KM7       0.033700
     42 H19          6.4150    -3.9290     0.6400 h1         1 KM7       0.033700
     43 H20          6.6120    -4.1220    -1.1010 h1         1 KM7       0.033700
     44 H21         -5.3930    -3.4260     1.7390 hn         1 KM7       0.412300
     45 H22         -3.7180    -3.2920     1.8970 hn         1 KM7       0.412300
@<TRIPOS>BOND
     1     1     2 ar  
     2     1    21 ar  
     3     1    22 1   
     4     2     3 ar  
     5     2    24 1   
     6     3     4 ar  
     7     3     6 1   
     8     4     5 ar  
     9     4    25 1   
    10     5     7 1   
    11     5    21 ar  
    12     6    26 1   
    13     6    27 1   
    14     6    28 1   
    15     7     8 1   
    16     7    29 1   
    17     7    30 1   
    18     8     9 1   
    19     8    31 1   
    20     8    32 1   
    21     9    10 ar  
    22     9    14 ar  
    23    10    11 ar  
    24    10    33 1   
    25    11    12 ar  
    26    11    20 1   
    27    12    13 ar  
    28    12    34 1   
    29    13    14 ar  
    30    13    15 1   
    31    14    35 1   
    32    15    16 3   
    33    16    17 1   
    34    17    23 1   
    35    17    36 1   
    36    17    37 1   
    37    18    23 1   
    38    18    38 1   
    39    18    39 1   
    40    18    40 1   
    41    19    23 1   
    42    19    41 1   
    43    19    42 1   
    44    19    43 1   
    45    22    44 1   
    46    22    45 1   
@<TRIPOS>SUBSTRUCTURE
     1 KM7         1 TEMP              0 ****  ****    0 ROOT
