@<TRIPOS>MOLECULE
KM8
   34    35     1     0     0
SMALL
No Charge or Current Charge


@<TRIPOS>ATOM
      1 C1         -19.3520   -26.8100    -6.2350 c3         1 KM8      -0.159400
      2 C2         -19.3620   -25.2840    -6.4180 c          1 KM8       0.606100
      3 C3         -19.9930   -23.5710    -8.2320 ca         1 KM8      -0.018000
      4 C7         -20.0800   -21.1060    -8.1100 ca         1 KM8       0.015000
      5 C8         -19.8860   -22.3690    -7.4950 ca         1 KM8      -0.127000
      6 C9         -19.9690   -19.8360    -7.3550 cc         1 KM8      -0.070000
      7 C10        -20.2100   -18.5190    -7.8450 cc         1 KM8      -0.064000
      8 C11        -20.0130   -17.5140    -6.9270 cd         1 KM8      -0.289900
      9 C12        -19.5660   -19.8330    -6.0380 cd         1 KM8      -0.226000
     10 C13        -20.1850   -16.0840    -7.1570 cf         1 KM8       0.683800
     11 O          -18.9630   -24.5350    -5.5340 o          1 KM8      -0.579100
     12 C          -20.4740   -27.2810    -5.2840 c3         1 KM8      -0.077100
     13 N          -19.8140   -24.8630    -7.6620 ns         1 KM8      -0.150000
     14 C6         -20.3940   -21.0840    -9.4880 ca         1 KM8      -0.125000
     15 C5         -20.5100   -22.2720   -10.2230 ca         1 KM8      -0.082000
     16 C4         -20.3120   -23.5090    -9.5970 ca         1 KM8      -0.169000
     17 S          -19.4960   -18.1930    -5.3730 ss         1 KM8       0.235000
     18 N2         -20.5020   -15.6210    -8.2950 n2         1 KM8      -0.815100
     19 N1         -19.9900   -15.2700    -6.1300 nv         1 KM8      -1.072200
     20 H1         -19.4910   -27.3070    -7.2030 hc         1 KM8       0.056700
     21 H2         -18.3890   -27.1070    -5.8020 hc         1 KM8       0.056700
     22 H3         -19.6680   -22.4200    -6.4380 ha         1 KM8       0.148000
     23 H4         -20.5290   -18.3220    -8.8630 ha         1 KM8       0.152000
     24 H5         -19.2930   -20.6560    -5.3930 h4         1 KM8       0.159000
     25 H6         -20.4470   -28.3710    -5.1680 hc         1 KM8       0.044367
     26 H7         -20.3600   -26.8290    -4.2910 hc         1 KM8       0.044367
     27 H8         -21.4600   -27.0040    -5.6790 hc         1 KM8       0.044367
     28 H9         -20.0710   -25.6190    -8.2840 hn         1 KM8       0.147000
     29 H10        -20.5500   -20.1450   -10.0100 ha         1 KM8       0.122000
     30 H11        -20.7540   -22.2330   -11.2830 ha         1 KM8       0.113000
     31 H12        -20.4050   -24.4240   -10.1790 ha         1 KM8       0.107000
     32 H13        -20.4110   -14.6010    -8.2580 hn         1 KM8       0.370400
     33 H14        -19.8920   -15.6700    -5.2070 hn         1 KM8       0.459500
     34 H15        -20.3330   -14.3180    -6.1720 hn         1 KM8       0.459500
@<TRIPOS>BOND
     1     1     2 1   
     2     1    12 1   
     3     1    20 1   
     4     1    21 1   
     5     2    11 2   
     6     2    13 1   
     7     3     5 ar  
     8     3    13 1   
     9     3    16 ar  
    10     4     5 ar  
    11     4     6 1   
    12     4    14 ar  
    13     5    22 1   
    14     6     7 1   
    15     6     9 2   
    16     7     8 2   
    17     7    23 1   
    18     8    10 1   
    19     8    17 1   
    20     9    17 1   
    21     9    24 1   
    22    10    18 2   
    23    10    19 1   
    24    12    25 1   
    25    12    26 1   
    26    12    27 1   
    27    13    28 1   
    28    14    15 ar  
    29    14    29 1   
    30    15    16 ar  
    31    15    30 1   
    32    16    31 1   
    33    18    32 1   
    34    19    33 1   
    35    19    34 1   
@<TRIPOS>SUBSTRUCTURE
     1 KM8         1 TEMP              0 ****  ****    0 ROOT
