@<TRIPOS>MOLECULE
KM8
   34    35     1     0     0
SMALL
abcg2


@<TRIPOS>ATOM
      1 C1         -19.9740   -26.6780    -6.2710 c3         1 KM8      -0.159400
      2 C2         -19.9100   -25.1790    -6.4770 c          1 KM8       0.606100
      3 C3         -19.9920   -23.5330    -8.3510 ca         1 KM8      -0.018000
      4 C7         -19.8140   -21.1190    -8.2780 ca         1 KM8       0.015000
      5 C8         -19.8410   -22.3530    -7.6250 ca         1 KM8      -0.127000
      6 C9         -19.6380   -19.8850    -7.4970 cc         1 KM8      -0.070000
      7 C10        -20.1940   -18.6230    -7.8540 cc         1 KM8      -0.064000
      8 C11        -19.9040   -17.6350    -6.9620 cd         1 KM8      -0.289900
      9 C12        -18.9220   -19.8040    -6.3320 cd         1 KM8      -0.226000
     10 C13        -20.3410   -16.2280    -7.0250 cf         1 KM8       0.683800
     11 O          -19.7420   -24.3950    -5.5610 o          1 KM8      -0.579100
     12 C          -20.2580   -27.0740    -4.8330 c3         1 KM8      -0.077100
     13 N          -20.0410   -24.8050    -7.7780 ns         1 KM8      -0.150000
     14 C6         -19.9510   -21.0640    -9.6630 ca         1 KM8      -0.125000
     15 C5         -20.1040   -22.2400   -10.3830 ca         1 KM8      -0.082000
     16 C4         -20.1230   -23.4640    -9.7420 ca         1 KM8      -0.169000
     17 S          -18.9220   -18.2290    -5.6780 ss         1 KM8       0.235000
     18 N2         -20.6280   -15.7370    -8.1680 n2         1 KM8      -0.815100
     19 N1         -20.3360   -15.5720    -5.8250 nv         1 KM8      -1.072200
     20 H1         -20.7240   -27.1070    -6.9400 hc         1 KM8       0.056700
     21 H2         -19.0150   -27.0960    -6.5940 hc         1 KM8       0.056700
     22 H3         -19.7670   -22.3860    -6.5510 ha         1 KM8       0.148000
     23 H4         -20.8170   -18.4570    -8.7210 ha         1 KM8       0.152000
     24 H5         -18.3660   -20.5880    -5.8400 h4         1 KM8       0.159000
     25 H6         -20.2670   -28.1590    -4.7410 hc         1 KM8       0.044367
     26 H7         -19.5000   -26.6900    -4.1520 hc         1 KM8       0.044367
     27 H8         -21.2270   -26.7050    -4.5000 hc         1 KM8       0.044367
     28 H9         -20.1780   -25.5580    -8.4370 hn         1 KM8       0.147000
     29 H10        -19.9220   -20.1160   -10.1820 ha         1 KM8       0.122000
     30 H11        -20.2040   -22.2030   -11.4600 ha         1 KM8       0.113000
     31 H12        -20.2470   -24.3730   -10.3180 ha         1 KM8       0.107000
     32 H13        -20.9660   -14.7830    -8.0800 hn         1 KM8       0.370400
     33 H14        -20.5620   -16.0990    -4.9950 hn         1 KM8       0.459500
     34 H15        -20.7280   -14.6430    -5.8160 hn         1 KM8       0.459500
@<TRIPOS>BOND
     1     1     2 1   
     2     1    12 1   
     3     1    20 1   
     4     1    21 1   
     5     2    11 2   
     6     2    13 1   
     7     3     5 ar  
     8     3    13 1   
     9     3    16 ar  
    10     4     5 ar  
    11     4     6 1   
    12     4    14 ar  
    13     5    22 1   
    14     6     7 1   
    15     6     9 2   
    16     7     8 2   
    17     7    23 1   
    18     8    10 1   
    19     8    17 1   
    20     9    17 1   
    21     9    24 1   
    22    10    18 2   
    23    10    19 1   
    24    12    25 1   
    25    12    26 1   
    26    12    27 1   
    27    13    28 1   
    28    14    15 ar  
    29    14    29 1   
    30    15    16 ar  
    31    15    30 1   
    32    16    31 1   
    33    18    32 1   
    34    19    33 1   
    35    19    34 1   
@<TRIPOS>SUBSTRUCTURE
     1 KM8         1 TEMP              0 ****  ****    0 ROOT
