@<TRIPOS>MOLECULE
KMA
   50    52     1     0     0
SMALL
No Charge or Current Charge


@<TRIPOS>ATOM
      1 F13          1.1950     4.6870    -0.4670 f          1 KMA      -0.183000
      2 C13          1.0800     3.3520    -0.2970 ca         1 KMA       0.171000
      3 C12         -0.1480     2.7220    -0.5490 ca         1 KMA      -0.150000
      4 C14          2.1880     2.6060     0.1310 ca         1 KMA      -0.154000
      5 C15          2.0730     1.2150     0.3130 ca         1 KMA      -0.051300
      6 C17          3.2720     0.3970     0.7740 c3         1 KMA      -0.030100
      7 C18          4.0620    -0.1960    -0.4150 c3         1 KMA      -0.068400
      8 C22          5.3230    -0.9950    -0.0090 c5         1 KMA       0.142500
      9 C23          6.1200    -1.5650    -1.2020 c5         1 KMA      -0.111400
     10 C24          7.0830    -2.5480    -0.4810 c5         1 KMA      -0.112400
     11 C25          6.3020    -2.9470     0.8070 c5         1 KMA       0.133800
     12 N21          5.0040    -2.2330     0.7240 n7         1 KMA      -0.826400
     13 C16          0.8400     0.5850     0.0570 ca         1 KMA      -0.126000
     14 C11         -0.2740     1.3310    -0.3760 ca         1 KMA      -0.050300
     15 C09         -1.6040     0.6400    -0.6440 c3         1 KMA      -0.031100
     16 C08         -2.4790     0.5530     0.6260 c3         1 KMA      -0.123700
     17 C06         -3.8000    -0.1580     0.3740 ca         1 KMA       0.396300
     18 C05         -3.8630    -1.5640     0.3420 ca         1 KMA      -0.215000
     19 N01         -4.8840     0.6260     0.1800 nb         1 KMA      -0.754000
     20 C02         -6.0340     0.0110    -0.0470 ca         1 KMA       0.599900
     21 N02         -7.0250     0.8890    -0.2120 nv         1 KMA      -1.054900
     22 C03         -6.2120    -1.3730    -0.0950 ca         1 KMA      -0.231000
     23 C04         -5.0940    -2.1970     0.1020 ca         1 KMA       0.000700
     24 C07         -5.2090    -3.7110     0.0630 c3         1 KMA      -0.053800
     25 H1          -0.9980     3.3150    -0.8780 ha         1 KMA       0.134000
     26 H2           3.1320     3.1100     0.3200 ha         1 KMA       0.129000
     27 H3           3.9440     1.0190     1.3770 hc         1 KMA       0.057700
     28 H4           2.9390    -0.4160     1.4300 hc         1 KMA       0.057700
     29 H5           3.3900    -0.8310    -1.0050 hc         1 KMA       0.043700
     30 H6           4.3600     0.6290    -1.0740 hc         1 KMA       0.043700
     31 H7           5.9650    -0.3400     0.6010 h1         1 KMA       0.064700
     32 H8           5.4680    -2.0910    -1.9110 hc         1 KMA       0.047700
     33 H9           6.6540    -0.7890    -1.7620 hc         1 KMA       0.047700
     34 H10          7.3230    -3.4160    -1.1060 hc         1 KMA       0.046200
     35 H11          8.0310    -2.0630    -0.2240 hc         1 KMA       0.046200
     36 H12          6.1560    -4.0340     0.8860 h1         1 KMA       0.052700
     37 H13          6.8570    -2.6230     1.6990 h1         1 KMA       0.052700
     38 H14          4.3730    -2.7850     0.1320 hn         1 KMA       0.396000
     39 H16          0.7470    -0.4900     0.1940 ha         1 KMA       0.115000
     40 H17         -2.1580     1.1750    -1.4250 hc         1 KMA       0.058700
     41 H18         -1.4300    -0.3710    -1.0330 hc         1 KMA       0.058700
     42 H19         -1.9220     0.0230     1.4080 hc         1 KMA       0.056700
     43 H20         -2.6540     1.5650     1.0090 hc         1 KMA       0.056700
     44 H21         -2.9630    -2.1510     0.5030 ha         1 KMA       0.122000
     45 H22         -6.8060     1.8330     0.0810 hn         1 KMA       0.467500
     46 H23         -7.9720     0.5680    -0.0410 hn         1 KMA       0.467500
     47 H24         -7.1940    -1.7970    -0.2830 ha         1 KMA       0.119000
     48 H25         -5.3960    -4.1140     1.0650 hc         1 KMA       0.046700
     49 H26         -6.0320    -4.0320    -0.5870 hc         1 KMA       0.046700
     50 H27         -4.2890    -4.1710    -0.3180 hc         1 KMA       0.046700
@<TRIPOS>BOND
     1     1     2 1   
     2     2     3 ar  
     3     2     4 ar  
     4     3    14 ar  
     5     3    25 1   
     6     4     5 ar  
     7     4    26 1   
     8     5     6 1   
     9     5    13 ar  
    10     6     7 1   
    11     6    27 1   
    12     6    28 1   
    13     7     8 1   
    14     7    29 1   
    15     7    30 1   
    16     8     9 1   
    17     8    12 1   
    18     8    31 1   
    19     9    10 1   
    20     9    32 1   
    21     9    33 1   
    22    10    11 1   
    23    10    34 1   
    24    10    35 1   
    25    11    12 1   
    26    11    36 1   
    27    11    37 1   
    28    12    38 1   
    29    13    14 ar  
    30    13    39 1   
    31    14    15 1   
    32    15    16 1   
    33    15    40 1   
    34    15    41 1   
    35    16    17 1   
    36    16    42 1   
    37    16    43 1   
    38    17    18 ar  
    39    17    19 ar  
    40    18    23 ar  
    41    18    44 1   
    42    19    20 ar  
    43    20    21 1   
    44    20    22 ar  
    45    21    45 1   
    46    21    46 1   
    47    22    23 ar  
    48    22    47 1   
    49    23    24 1   
    50    24    48 1   
    51    24    49 1   
    52    24    50 1   
@<TRIPOS>SUBSTRUCTURE
     1 KMA         1 TEMP              0 ****  ****    0 ROOT
