@<TRIPOS>MOLECULE
KMA
   50    52     1     0     0
SMALL
bcc


@<TRIPOS>ATOM
      1 F13          1.1410     4.5660    -0.0280 f          1 KMA      -0.147900
      2 C13          1.0480     3.2250     0.0350 ca         1 KMA       0.135900
      3 C12         -0.1510     2.6290    -0.3020 ca         1 KMA      -0.168000
      4 C14          2.1560     2.5030     0.4310 ca         1 KMA      -0.172000
      5 C15          2.0650     1.1150     0.4950 ca         1 KMA      -0.051300
      6 C17          3.2640     0.2910     0.8690 c3         1 KMA      -0.030100
      7 C18          4.1400    -0.0180    -0.3470 c3         1 KMA      -0.068400
      8 C22          5.3490    -0.8760    -0.0190 c5         1 KMA       0.142500
      9 C23          6.2570    -1.1690    -1.2260 c5         1 KMA      -0.111400
     10 C24          6.9260    -2.5120    -0.8800 c5         1 KMA      -0.112400
     11 C25          6.1920    -2.9810     0.3990 c5         1 KMA       0.133800
     12 N21          4.9780    -2.1820     0.5200 n7         1 KMA      -0.771200
     13 C16          0.8610     0.5020     0.1570 ca         1 KMA      -0.144000
     14 C11         -0.2490     1.2420    -0.2420 ca         1 KMA      -0.050300
     15 C09         -1.5500     0.5590    -0.5510 c3         1 KMA      -0.031100
     16 C08         -2.4040     0.3680     0.7110 c3         1 KMA      -0.123700
     17 C06         -3.7200    -0.2830     0.3930 ca         1 KMA       0.461600
     18 C05         -3.9900    -1.5830     0.7800 ca         1 KMA      -0.298300
     19 N01         -4.5850     0.4590    -0.3030 nb         1 KMA      -0.754000
     20 C02         -5.7520    -0.0740    -0.6440 ca         1 KMA       0.665200
     21 N02         -6.5920     0.6970    -1.3960 nv         1 KMA      -0.944500
     22 C03         -6.1090    -1.3890    -0.2940 ca         1 KMA      -0.314300
     23 C04         -5.2200    -2.1550     0.4300 ca         1 KMA       0.000700
     24 C07         -5.5580    -3.5530     0.8480 c3         1 KMA      -0.053800
     25 H1          -0.9980     3.2330    -0.6070 ha         1 KMA       0.152000
     26 H2           3.0760     3.0140     0.6880 ha         1 KMA       0.147000
     27 H3           3.8620     0.8190     1.6160 hc         1 KMA       0.057700
     28 H4           2.9370    -0.6430     1.3300 hc         1 KMA       0.057700
     29 H5           3.5400    -0.5220    -1.1140 hc         1 KMA       0.043700
     30 H6           4.4830     0.9190    -0.7950 hc         1 KMA       0.043700
     31 H7           5.9470    -0.3650     0.7480 h1         1 KMA       0.064700
     32 H8           5.6460    -1.2610    -2.1280 hc         1 KMA       0.047700
     33 H9           6.9760    -0.3690    -1.4040 hc         1 KMA       0.047700
     34 H10          6.8040    -3.2320    -1.6900 hc         1 KMA       0.046200
     35 H11          7.9970    -2.4070    -0.7070 hc         1 KMA       0.046200
     36 H12          5.9490    -4.0430     0.3890 h1         1 KMA       0.052700
     37 H13          6.8220    -2.8030     1.2740 h1         1 KMA       0.052700
     38 H14          4.2710    -2.5800    -0.0910 hn         1 KMA       0.340800
     39 H16          0.7850    -0.5790     0.2060 ha         1 KMA       0.133000
     40 H17         -2.1180     1.1440    -1.2780 hc         1 KMA       0.058700
     41 H18         -1.3590    -0.4170    -1.0050 hc         1 KMA       0.058700
     42 H19         -1.8530    -0.2340     1.4360 hc         1 KMA       0.056700
     43 H20         -2.5840     1.3430     1.1710 hc         1 KMA       0.056700
     44 H21         -3.2610    -2.1470     1.3480 ha         1 KMA       0.140000
     45 H22         -6.4120     1.6880    -1.3820 hn         1 KMA       0.412300
     46 H23         -7.5690     0.4590    -1.3920 hn         1 KMA       0.412300
     47 H24         -7.0700    -1.7880    -0.5950 ha         1 KMA       0.137000
     48 H25         -5.7510    -3.5970     1.9220 hc         1 KMA       0.046700
     49 H26         -6.4430    -3.9250     0.3350 hc         1 KMA       0.046700
     50 H27         -4.7320    -4.2360     0.6450 hc         1 KMA       0.046700
@<TRIPOS>BOND
     1     1     2 1   
     2     2     3 ar  
     3     2     4 ar  
     4     3    14 ar  
     5     3    25 1   
     6     4     5 ar  
     7     4    26 1   
     8     5     6 1   
     9     5    13 ar  
    10     6     7 1   
    11     6    27 1   
    12     6    28 1   
    13     7     8 1   
    14     7    29 1   
    15     7    30 1   
    16     8     9 1   
    17     8    12 1   
    18     8    31 1   
    19     9    10 1   
    20     9    32 1   
    21     9    33 1   
    22    10    11 1   
    23    10    34 1   
    24    10    35 1   
    25    11    12 1   
    26    11    36 1   
    27    11    37 1   
    28    12    38 1   
    29    13    14 ar  
    30    13    39 1   
    31    14    15 1   
    32    15    16 1   
    33    15    40 1   
    34    15    41 1   
    35    16    17 1   
    36    16    42 1   
    37    16    43 1   
    38    17    18 ar  
    39    17    19 ar  
    40    18    23 ar  
    41    18    44 1   
    42    19    20 ar  
    43    20    21 1   
    44    20    22 ar  
    45    21    45 1   
    46    21    46 1   
    47    22    23 ar  
    48    22    47 1   
    49    23    24 1   
    50    24    48 1   
    51    24    49 1   
    52    24    50 1   
@<TRIPOS>SUBSTRUCTURE
     1 KMA         1 TEMP              0 ****  ****    0 ROOT
