@<TRIPOS>MOLECULE
KMB
   38    40     1     0     0
SMALL
No Charge or Current Charge


@<TRIPOS>ATOM
      1 C4           3.5080    -0.4480     2.9070 c3         1 KMB       0.205100
      2 N4           4.0340     0.7050     3.6560 n8         1 KMB      -1.000200
      3 C6           2.1000    -0.1760     2.4020 ca         1 KMB      -0.129300
      4 C1           1.8750     0.1520     1.0550 ca         1 KMB      -0.049000
      5 C2           0.5720     0.3980     0.5790 ca         1 KMB      -0.099300
      6 C3          -0.5400     0.3140     1.4560 ca         1 KMB       0.249400
      7 N3          -1.8310     0.5630     0.9440 nc         1 KMB      -0.711100
      8 C8          -2.7610     0.4500     1.8560 cd         1 KMB       0.730800
      9 N2          -3.9850     0.6670     1.4130 nv         1 KMB      -1.047200
     10 N1          -2.6400     0.1440     3.1510 ns         1 KMB      -0.454400
     11 C7          -1.4550    -0.1060     3.7360 c          1 KMB       0.592600
     12 O1          -1.3640    -0.3770     4.9230 o          1 KMB      -0.535000
     13 C41         -0.3010    -0.0170     2.8090 ca         1 KMB      -0.238600
     14 C5           1.0070    -0.2590     3.2770 ca         1 KMB       0.001000
     15 C9           0.4040     0.7450    -0.9000 c3         1 KMB       0.116900
     16 S1           0.3170    -0.7930    -1.9240 ss         1 KMB      -0.167000
     17 C10          0.2190    -0.2420    -3.6330 ca         1 KMB      -0.085000
     18 C11          0.1070     1.1190    -3.9920 ca         1 KMB      -0.115000
     19 C12          0.0340     1.4880    -5.3470 ca         1 KMB      -0.097500
     20 C13          0.0720     0.5050    -6.3500 ca         1 KMB      -0.122000
     21 C14          0.1820    -0.8500    -5.9980 ca         1 KMB      -0.097500
     22 C15          0.2550    -1.2200    -4.6440 ca         1 KMB      -0.115000
     23 H41          4.1780    -0.6580     2.0610 h1         1 KMB       0.034700
     24 H42          3.5030    -1.3280     3.5650 h1         1 KMB       0.034700
     25 HN41         5.0130     0.5200     3.9050 hn         1 KMB       0.398500
     26 HN42         4.0930     1.5080     3.0190 hn         1 KMB       0.398500
     27 H1           2.7180     0.2140     0.3700 ha         1 KMB       0.114000
     28 HN21        -4.0340     0.7110     0.4030 hn         1 KMB       0.499500
     29 HN22        -4.7350     0.1520     1.8560 hn         1 KMB       0.499500
     30 HN1         -3.4510     0.1170     3.7450 hn         1 KMB       0.323500
     31 H5           1.1790    -0.5110     4.3230 ha         1 KMB       0.153000
     32 H91         -0.5000     1.3420    -1.0650 h1         1 KMB       0.073700
     33 H92          1.2630     1.3400    -1.2340 h1         1 KMB       0.073700
     34 H11          0.0720     1.9010    -3.2400 ha         1 KMB       0.116500
     35 H12         -0.0530     2.5370    -5.6190 ha         1 KMB       0.111000
     36 H13          0.0150     0.7930    -7.3980 ha         1 KMB       0.112000
     37 H14          0.2110    -1.6130    -6.7730 ha         1 KMB       0.111000
     38 H15          0.3400    -2.2720    -4.3790 ha         1 KMB       0.116500
@<TRIPOS>BOND
     1     1     2 1   
     2     1     3 1   
     3     1    23 1   
     4     1    24 1   
     5     2    25 1   
     6     2    26 1   
     7     3     4 ar  
     8     3    14 ar  
     9     4     5 ar  
    10     4    27 1   
    11     5     6 ar  
    12     5    15 1   
    13     6     7 1   
    14     6    13 ar  
    15     7     8 2   
    16     8     9 1   
    17     8    10 1   
    18     9    28 1   
    19     9    29 1   
    20    10    11 1   
    21    10    30 1   
    22    11    12 2   
    23    11    13 1   
    24    13    14 ar  
    25    14    31 1   
    26    15    16 1   
    27    15    32 1   
    28    15    33 1   
    29    16    17 1   
    30    17    18 ar  
    31    17    22 ar  
    32    18    19 ar  
    33    18    34 1   
    34    19    20 ar  
    35    19    35 1   
    36    20    21 ar  
    37    20    36 1   
    38    21    22 ar  
    39    21    37 1   
    40    22    38 1   
@<TRIPOS>SUBSTRUCTURE
     1 KMB         1 TEMP              0 ****  ****    0 ROOT
