@<TRIPOS>MOLECULE
KMB
   38    40     1     0     0
SMALL
abcg2


@<TRIPOS>ATOM
      1 C4           3.6470    -0.1110     2.8780 c3         1 KMB       0.205100
      2 N4           3.7270    -0.0340     4.3240 n8         1 KMB      -1.000200
      3 C6           2.2390     0.0600     2.3680 ca         1 KMB      -0.129300
      4 C1           2.0280     0.3690     1.0160 ca         1 KMB      -0.049000
      5 C2           0.7690     0.5250     0.4740 ca         1 KMB      -0.099300
      6 C3          -0.3650     0.3640     1.3000 ca         1 KMB       0.249400
      7 N3          -1.6050     0.5200     0.7540 nc         1 KMB      -0.711100
      8 C8          -2.6300     0.3810     1.5350 cd         1 KMB       0.730800
      9 N2          -3.8760     0.5650     1.0690 nv         1 KMB      -1.047200
     10 N1          -2.5170     0.0790     2.8650 ns         1 KMB      -0.454400
     11 C7          -1.3160    -0.0970     3.5180 c          1 KMB       0.592600
     12 O1          -1.2890    -0.3600     4.7070 o          1 KMB      -0.535000
     13 C41         -0.1550     0.0610     2.6550 ca         1 KMB      -0.238600
     14 C5           1.1340    -0.0900     3.1760 ca         1 KMB       0.001000
     15 C9           0.6020     0.8470    -0.9780 c3         1 KMB       0.116900
     16 S1           0.3290    -0.7210    -1.8570 ss         1 KMB      -0.167000
     17 C10          0.1130    -0.2380    -3.5370 ca         1 KMB      -0.085000
     18 C11          0.1380     1.0830    -3.9790 ca         1 KMB      -0.115000
     19 C12         -0.0390     1.3690    -5.3280 ca         1 KMB      -0.097500
     20 C13         -0.2400     0.3510    -6.2470 ca         1 KMB      -0.122000
     21 C14         -0.2680    -0.9670    -5.8060 ca         1 KMB      -0.097500
     22 C15         -0.0920    -1.2630    -4.4650 ca         1 KMB      -0.115000
     23 H41          4.2930     0.6120     2.3600 h1         1 KMB       0.034700
     24 H42          4.0100    -1.0980     2.5750 h1         1 KMB       0.034700
     25 HN41         4.6600    -0.2870     4.6200 hn         1 KMB       0.398500
     26 HN42         3.5880     0.9230     4.6240 hn         1 KMB       0.398500
     27 H1           2.8900     0.4980     0.3700 ha         1 KMB       0.114000
     28 HN21        -3.9910     0.6200     0.0710 hn         1 KMB       0.499500
     29 HN22        -4.6760     0.2540     1.5920 hn         1 KMB       0.499500
     30 HN1         -3.3540    -0.0210     3.4240 hn         1 KMB       0.323500
     31 H5           1.2600    -0.3210     4.2260 ha         1 KMB       0.153000
     32 H91         -0.2510     1.5050    -1.1360 h1         1 KMB       0.073700
     33 H92          1.5000     1.3270    -1.3690 h1         1 KMB       0.073700
     34 H11          0.2890     1.9000    -3.2880 ha         1 KMB       0.116500
     35 H12         -0.0170     2.4000    -5.6540 ha         1 KMB       0.111000
     36 H13         -0.3760     0.5790    -7.2960 ha         1 KMB       0.112000
     37 H14         -0.4260    -1.7740    -6.5100 ha         1 KMB       0.111000
     38 H15         -0.1140    -2.2960    -4.1370 ha         1 KMB       0.116500
@<TRIPOS>BOND
     1     1     2 1   
     2     1     3 1   
     3     1    23 1   
     4     1    24 1   
     5     2    25 1   
     6     2    26 1   
     7     3     4 ar  
     8     3    14 ar  
     9     4     5 ar  
    10     4    27 1   
    11     5     6 ar  
    12     5    15 1   
    13     6     7 1   
    14     6    13 ar  
    15     7     8 2   
    16     8     9 1   
    17     8    10 1   
    18     9    28 1   
    19     9    29 1   
    20    10    11 1   
    21    10    30 1   
    22    11    12 2   
    23    11    13 1   
    24    13    14 ar  
    25    14    31 1   
    26    15    16 1   
    27    15    32 1   
    28    15    33 1   
    29    16    17 1   
    30    17    18 ar  
    31    17    22 ar  
    32    18    19 ar  
    33    18    34 1   
    34    19    20 ar  
    35    19    35 1   
    36    20    21 ar  
    37    20    36 1   
    38    21    22 ar  
    39    21    37 1   
    40    22    38 1   
@<TRIPOS>SUBSTRUCTURE
     1 KMB         1 TEMP              0 ****  ****    0 ROOT
