@<TRIPOS>MOLECULE
KMC
   30    32     1     0     0
SMALL
No Charge or Current Charge


@<TRIPOS>ATOM
      1 C1          29.4260    30.7500    77.0440 ca         1 KMC      -0.381600
      2 C2          29.0170    30.6350    75.7070 ca         1 KMC       0.250100
      3 C3          27.5400    32.4740    75.8390 cc         1 KMC       0.147900
      4 C4          27.9410    32.7470    77.1400 cd         1 KMC      -0.060100
      5 C5          26.5040    33.2750    75.1770 ca         1 KMC      -0.053800
      6 C6          25.2640    33.5240    75.8040 ca         1 KMC      -0.069500
      7 O1          28.2460    31.5800    75.0470 os         1 KMC      -0.200200
      8 O2          27.4450    33.7600    77.9160 oh         1 KMC      -0.517100
      9 C           28.9480    31.9090    77.8150 c          1 KMC       0.578900
     10 C10         26.7240    33.7770    73.8770 ca         1 KMC      -0.069500
     11 C9          25.7320    34.5300    73.2240 ca         1 KMC      -0.119500
     12 C8          24.5060    34.7820    73.8610 ca         1 KMC      -0.090000
     13 C7          24.2720    34.2760    75.1500 ca         1 KMC      -0.119500
     14 C11         29.4630    29.5460    74.9460 ca         1 KMC      -0.242000
     15 C12         30.2850    28.5700    75.5140 ca         1 KMC       0.252100
     16 C13         30.6840    28.6800    76.8470 ca         1 KMC      -0.314000
     17 C14         30.2580    29.7690    77.6070 ca         1 KMC       0.293100
     18 H1          25.0650    33.1280    76.7970 ha         1 KMC       0.126500
     19 H2          27.9140    33.7080    78.7840 ho         1 KMC       0.490000
     20 H3          31.2650    26.9500    75.3260 ho         1 KMC       0.479000
     21 H4          30.2790    30.7220    79.2210 ho         1 KMC       0.521000
     22 H5          27.6700    33.5890    73.3730 ha         1 KMC       0.126500
     23 H6          25.9140    34.9170    72.2240 ha         1 KMC       0.116500
     24 H7          23.7380    35.3630    73.3550 ha         1 KMC       0.115000
     25 H8          23.3200    34.4640    75.6430 ha         1 KMC       0.116500
     26 H9          29.1670    29.4600    73.9050 ha         1 KMC       0.154000
     27 H10         31.3270    27.9300    77.2990 ha         1 KMC       0.138000
     28 O3          30.7010    27.5190    74.7610 oh         1 KMC      -0.519100
     29 O4          30.6630    29.8670    78.8960 oh         1 KMC      -0.532100
     30 O           29.3390    32.1340    78.9580 o          1 KMC      -0.617100
@<TRIPOS>BOND
     1     1     2 ar  
     2     1     9 1   
     3     1    17 ar  
     4     2     7 1   
     5     2    14 ar  
     6     3     4 2   
     7     3     5 1   
     8     3     7 1   
     9     4     8 1   
    10     4     9 1   
    11     5     6 ar  
    12     5    10 ar  
    13     6    13 ar  
    14     6    18 1   
    15     8    19 1   
    16     9    30 2   
    17    10    11 ar  
    18    10    22 1   
    19    11    12 ar  
    20    11    23 1   
    21    12    13 ar  
    22    12    24 1   
    23    13    25 1   
    24    14    15 ar  
    25    14    26 1   
    26    15    16 ar  
    27    15    28 1   
    28    16    17 ar  
    29    16    27 1   
    30    17    29 1   
    31    20    28 1   
    32    21    29 1   
@<TRIPOS>SUBSTRUCTURE
     1 KMC         1 TEMP              0 ****  ****    0 ROOT
