@<TRIPOS>MOLECULE
KMC
   30    32     1     0     0
SMALL
bcc


@<TRIPOS>ATOM
      1 C1          29.3180    30.7150    77.1010 ca         1 KMC      -0.381600
      2 C2          28.8780    30.5880    75.7800 ca         1 KMC       0.250100
      3 C3          27.4140    32.4260    76.0330 cc         1 KMC       0.147900
      4 C4          27.8000    32.6230    77.3170 cd         1 KMC      -0.060100
      5 C5          26.4650    33.2340    75.2630 ca         1 KMC      -0.053800
      6 C6          25.3410    33.8080    75.8640 ca         1 KMC      -0.087500
      7 O1          27.9460    31.4230    75.2990 os         1 KMC      -0.200200
      8 O2          27.3190    33.6320    78.0580 oh         1 KMC      -0.478100
      9 C           28.7840    31.7520    77.9310 c          1 KMC       0.578900
     10 C10         26.6740    33.4280    73.8940 ca         1 KMC      -0.087500
     11 C9          25.7890    34.1910    73.1500 ca         1 KMC      -0.137500
     12 C8          24.6790    34.7640    73.7550 ca         1 KMC      -0.108000
     13 C7          24.4570    34.5660    75.1110 ca         1 KMC      -0.137500
     14 C11         29.3660    29.6190    74.9240 ca         1 KMC      -0.260000
     15 C12         30.3320    28.7460    75.4140 ca         1 KMC       0.252100
     16 C13         30.8010    28.8370    76.7300 ca         1 KMC      -0.332000
     17 C14         30.3020    29.8110    77.5720 ca         1 KMC       0.293100
     18 H1          25.1390    33.6510    76.9130 ha         1 KMC       0.144500
     19 H2          27.7410    33.5880    78.9300 ho         1 KMC       0.451000
     20 H3          31.4530    27.2580    74.9960 ho         1 KMC       0.440000
     21 H4          30.3000    30.6370    79.2670 ho         1 KMC       0.482000
     22 H5          27.5370    32.9970    73.4040 ha         1 KMC       0.144500
     23 H6          25.9700    34.3390    72.0940 ha         1 KMC       0.134500
     24 H7          23.9870    35.3590    73.1720 ha         1 KMC       0.133000
     25 H8          23.5880    34.9980    75.5880 ha         1 KMC       0.134500
     26 H9          29.0090    29.5430    73.9050 ha         1 KMC       0.172000
     27 H10         31.5540    28.1480    77.0960 ha         1 KMC       0.156000
     28 O3          30.7940    27.8200    74.5700 oh         1 KMC      -0.480100
     29 O4          30.7540    29.8900    78.8190 oh         1 KMC      -0.493100
     30 O           29.1270    31.9440    79.1100 o          1 KMC      -0.617100
@<TRIPOS>BOND
     1     1     2 ar  
     2     1     9 1   
     3     1    17 ar  
     4     2     7 1   
     5     2    14 ar  
     6     3     4 2   
     7     3     5 1   
     8     3     7 1   
     9     4     8 1   
    10     4     9 1   
    11     5     6 ar  
    12     5    10 ar  
    13     6    13 ar  
    14     6    18 1   
    15     8    19 1   
    16     9    30 2   
    17    10    11 ar  
    18    10    22 1   
    19    11    12 ar  
    20    11    23 1   
    21    12    13 ar  
    22    12    24 1   
    23    13    25 1   
    24    14    15 ar  
    25    14    26 1   
    26    15    16 ar  
    27    15    28 1   
    28    16    17 ar  
    29    16    27 1   
    30    17    29 1   
    31    20    28 1   
    32    21    29 1   
@<TRIPOS>SUBSTRUCTURE
     1 KMC         1 TEMP              0 ****  ****    0 ROOT
