@<TRIPOS>MOLECULE
KMD
   53    55     1     0     0
SMALL
No Charge or Current Charge


@<TRIPOS>ATOM
      1 C02         -5.1690     2.1100    -0.2610 ca         1 KMD       0.601900
      2 C03         -6.3160     1.4130     0.1230 ca         1 KMD      -0.232000
      3 C04         -6.1630     0.1390     0.6900 ca         1 KMD       0.001700
      4 C05         -4.8540    -0.3500     0.8320 ca         1 KMD      -0.214000
      5 C06         -3.7680     0.4430     0.4140 ca         1 KMD       0.396300
      6 C07         -7.3640    -0.6830     1.1250 c3         1 KMD      -0.053800
      7 C08         -2.3400    -0.0640     0.5510 c3         1 KMD      -0.123700
      8 C09         -1.9420    -1.0230    -0.5910 c3         1 KMD      -0.031100
      9 C11         -0.5210    -1.5460    -0.4300 ca         1 KMD      -0.049300
     10 C12         -0.2840    -2.7730     0.2160 ca         1 KMD      -0.155000
     11 C13          1.0290    -3.2440     0.3690 ca         1 KMD       0.171000
     12 C14          2.1130    -2.4990    -0.1180 ca         1 KMD      -0.154000
     13 C15          1.8890    -1.2700    -0.7660 ca         1 KMD      -0.050300
     14 C16          0.5700    -0.7990    -0.9160 ca         1 KMD      -0.121000
     15 C17          3.0620    -0.4510    -1.2870 c3         1 KMD      -0.032100
     16 C18          3.6240     0.5020    -0.2080 c3         1 KMD      -0.101400
     17 C22          4.7670     1.4410    -0.7050 c5         1 KMD       0.191500
     18 C23          6.1020     0.7310    -1.0630 c5         1 KMD      -0.085400
     19 C24          6.7520     0.4870     0.3330 c5         1 KMD      -0.080400
     20 C25          6.0940     1.5620     1.2510 c5         1 KMD       0.176800
     21 F13          1.2510    -4.4210     0.9920 f          1 KMD      -0.183000
     22 N01         -3.9270     1.6700    -0.1300 nb         1 KMD      -0.754000
     23 N02         -5.1930     3.3300    -0.8020 nv         1 KMD      -1.056900
     24 N21          5.3080     2.3890     0.3020 n3         1 KMD      -0.753600
     25 H1          -7.3000     1.8480    -0.0200 ha         1 KMD       0.119000
     26 H2          -4.6750    -1.3320     1.2610 ha         1 KMD       0.122000
     27 H3          -7.7040    -1.3370     0.3140 hc         1 KMD       0.046700
     28 H4          -7.1230    -1.3160     1.9880 hc         1 KMD       0.046700
     29 H5          -8.2050    -0.0400     1.4130 hc         1 KMD       0.046700
     30 H6          -1.6360     0.7760     0.5760 hc         1 KMD       0.056700
     31 H7          -2.2270    -0.5850     1.5090 hc         1 KMD       0.056700
     32 H8          -2.6510    -1.8600    -0.6250 hc         1 KMD       0.059200
     33 H9          -2.0430    -0.5000    -1.5510 hc         1 KMD       0.059200
     34 H10         -1.1120    -3.3620     0.6030 ha         1 KMD       0.130000
     35 H11          3.1250    -2.8750     0.0120 ha         1 KMD       0.129000
     36 H12          0.3910     0.1540    -1.4100 ha         1 KMD       0.119000
     37 H13          3.8540    -1.1240    -1.6350 hc         1 KMD       0.049700
     38 H14          2.7530     0.1360    -2.1610 hc         1 KMD       0.049700
     39 H15          2.7900     1.1140     0.1560 hc         1 KMD       0.047200
     40 H16          3.9530    -0.1010     0.6450 hc         1 KMD       0.047200
     41 H17          4.3840     1.9860    -1.5800 h1         1 KMD       0.059700
     42 H18          5.9670    -0.1940    -1.6330 hc         1 KMD       0.044700
     43 H19          6.7330     1.3870    -1.6740 hc         1 KMD       0.044700
     44 H20          6.5410    -0.5220     0.7060 hc         1 KMD       0.050200
     45 H21          7.8420     0.5940     0.2940 hc         1 KMD       0.050200
     46 H22          5.4470     1.0890     2.0030 h1         1 KMD       0.032700
     47 H23          6.8440     2.1600     1.7860 h1         1 KMD       0.032700
     48 H24          4.8950     4.0600     1.5510 h1         1 KMD       0.027367
     49 H25          3.8320     3.9150     0.1340 h1         1 KMD       0.027367
     50 H26          3.6150     2.8280     1.5290 h1         1 KMD       0.027367
     51 H27         -6.0170     3.8960    -0.6360 hn         1 KMD       0.468500
     52 H28         -4.3030     3.8120    -0.8160 hn         1 KMD       0.468500
     53 C26          4.3600     3.3470     0.9110 c3         1 KMD       0.176100
@<TRIPOS>BOND
     1     1     2 ar  
     2     1    22 ar  
     3     1    23 1   
     4     2     3 ar  
     5     2    25 1   
     6     3     4 ar  
     7     3     6 1   
     8     4     5 ar  
     9     4    26 1   
    10     5     7 1   
    11     5    22 ar  
    12     6    27 1   
    13     6    28 1   
    14     6    29 1   
    15     7     8 1   
    16     7    30 1   
    17     7    31 1   
    18     8     9 1   
    19     8    32 1   
    20     8    33 1   
    21     9    10 ar  
    22     9    14 ar  
    23    10    11 ar  
    24    10    34 1   
    25    11    12 ar  
    26    11    21 1   
    27    12    13 ar  
    28    12    35 1   
    29    13    14 ar  
    30    13    15 1   
    31    14    36 1   
    32    15    16 1   
    33    15    37 1   
    34    15    38 1   
    35    16    17 1   
    36    16    39 1   
    37    16    40 1   
    38    17    18 1   
    39    17    24 1   
    40    17    41 1   
    41    18    19 1   
    42    18    42 1   
    43    18    43 1   
    44    19    20 1   
    45    19    44 1   
    46    19    45 1   
    47    20    24 1   
    48    20    46 1   
    49    20    47 1   
    50    23    51 1   
    51    23    52 1   
    52    24    53 1   
    53    48    53 1   
    54    49    53 1   
    55    50    53 1   
@<TRIPOS>SUBSTRUCTURE
     1 KMD         1 TEMP              0 ****  ****    0 ROOT
