@<TRIPOS>MOLECULE
KMD
   53    55     1     0     0
SMALL
bcc


@<TRIPOS>ATOM
      1 C02         -5.1490     1.8940    -0.6530 ca         1 KMD       0.667200
      2 C03         -6.3520     1.3810    -0.1360 ca         1 KMD      -0.315300
      3 C04         -6.3100     0.2700     0.6810 ca         1 KMD       0.001700
      4 C05         -5.0600    -0.2960     0.9620 ca         1 KMD      -0.297300
      5 C06         -3.9260     0.2770     0.4150 ca         1 KMD       0.461600
      6 C07         -7.5620    -0.3300     1.2440 c3         1 KMD      -0.053800
      7 C08         -2.5610    -0.2990     0.6630 c3         1 KMD      -0.123700
      8 C09         -1.9920    -0.9560    -0.6010 c3         1 KMD      -0.031100
      9 C11         -0.5910    -1.4580    -0.3960 ca         1 KMD      -0.049300
     10 C12         -0.3650    -2.6720     0.2480 ca         1 KMD      -0.173000
     11 C13          0.9370    -3.0900     0.4380 ca         1 KMD       0.135900
     12 C14          2.0280    -2.3580     0.0120 ca         1 KMD      -0.172000
     13 C15          1.8100    -1.1420    -0.6310 ca         1 KMD      -0.050300
     14 C16          0.5010    -0.7070    -0.8210 ca         1 KMD      -0.139000
     15 C17          2.9690    -0.3030    -1.0900 c3         1 KMD      -0.032100
     16 C18          3.6630     0.4220     0.0640 c3         1 KMD      -0.101400
     17 C22          4.7150     1.4100    -0.4510 c5         1 KMD       0.191500
     18 C23          5.8830     0.6810    -1.1550 c5         1 KMD      -0.085400
     19 C24          7.1560     1.2240    -0.5010 c5         1 KMD      -0.080400
     20 C25          6.6600     1.6310     0.8760 c5         1 KMD       0.176800
     21 F13          1.1530    -4.2640     1.0570 f          1 KMD      -0.147900
     22 N01         -3.9690     1.3520    -0.3760 nb         1 KMD      -0.754000
     23 N02         -5.1580     2.9620    -1.5040 nv         1 KMD      -0.946500
     24 N21          5.3750     2.2190     0.5740 n3         1 KMD      -0.753600
     25 H1          -7.2940     1.8590    -0.3740 ha         1 KMD       0.137000
     26 H2          -4.9800    -1.1630     1.6050 ha         1 KMD       0.140000
     27 H3          -7.8120    -1.2540     0.7200 hc         1 KMD       0.046700
     28 H4          -7.4400    -0.5820     2.2970 hc         1 KMD       0.046700
     29 H5          -8.4120     0.3450     1.1490 hc         1 KMD       0.046700
     30 H6          -1.8880     0.4990     0.9870 hc         1 KMD       0.056700
     31 H7          -2.6040    -1.0330     1.4700 hc         1 KMD       0.056700
     32 H8          -2.6430    -1.7820    -0.9000 hc         1 KMD       0.059200
     33 H9          -2.0050    -0.2290    -1.4150 hc         1 KMD       0.059200
     34 H10         -1.1910    -3.2860     0.5890 ha         1 KMD       0.148000
     35 H11          3.0320    -2.7320     0.1750 ha         1 KMD       0.147000
     36 H12          0.3260     0.2360    -1.3270 ha         1 KMD       0.137000
     37 H13          3.6880    -0.9300    -1.6230 hc         1 KMD       0.049700
     38 H14          2.6110     0.4390    -1.8080 hc         1 KMD       0.049700
     39 H15          2.9050     0.9510     0.6480 hc         1 KMD       0.047200
     40 H16          4.1300    -0.3060     0.7360 hc         1 KMD       0.047200
     41 H17          4.2020     2.0850    -1.1490 h1         1 KMD       0.059700
     42 H18          5.8100    -0.3950    -0.9760 hc         1 KMD       0.044700
     43 H19          5.8690     0.8220    -2.2360 hc         1 KMD       0.044700
     44 H20          7.9570     0.4860    -0.4670 hc         1 KMD       0.050200
     45 H21          7.5290     2.0990    -1.0360 hc         1 KMD       0.050200
     46 H22          6.5930     0.7520     1.5410 h1         1 KMD       0.032700
     47 H23          7.3090     2.3580     1.3720 h1         1 KMD       0.032700
     48 H24          5.1550     3.3860     2.2780 h1         1 KMD       0.027367
     49 H25          3.6670     3.1030     1.3850 h1         1 KMD       0.027367
     50 H26          4.3400     1.8250     2.4060 h1         1 KMD       0.027367
     51 H27         -5.9690     3.5560    -1.4970 hn         1 KMD       0.413300
     52 H28         -4.2860     3.4550    -1.6070 hn         1 KMD       0.413300
     53 C26          4.5980     2.6360     1.7100 c3         1 KMD       0.176100
@<TRIPOS>BOND
     1     1     2 ar  
     2     1    22 ar  
     3     1    23 1   
     4     2     3 ar  
     5     2    25 1   
     6     3     4 ar  
     7     3     6 1   
     8     4     5 ar  
     9     4    26 1   
    10     5     7 1   
    11     5    22 ar  
    12     6    27 1   
    13     6    28 1   
    14     6    29 1   
    15     7     8 1   
    16     7    30 1   
    17     7    31 1   
    18     8     9 1   
    19     8    32 1   
    20     8    33 1   
    21     9    10 ar  
    22     9    14 ar  
    23    10    11 ar  
    24    10    34 1   
    25    11    12 ar  
    26    11    21 1   
    27    12    13 ar  
    28    12    35 1   
    29    13    14 ar  
    30    13    15 1   
    31    14    36 1   
    32    15    16 1   
    33    15    37 1   
    34    15    38 1   
    35    16    17 1   
    36    16    39 1   
    37    16    40 1   
    38    17    18 1   
    39    17    24 1   
    40    17    41 1   
    41    18    19 1   
    42    18    42 1   
    43    18    43 1   
    44    19    20 1   
    45    19    44 1   
    46    19    45 1   
    47    20    24 1   
    48    20    46 1   
    49    20    47 1   
    50    23    51 1   
    51    23    52 1   
    52    24    53 1   
    53    48    53 1   
    54    49    53 1   
    55    50    53 1   
@<TRIPOS>SUBSTRUCTURE
     1 KMD         1 TEMP              0 ****  ****    0 ROOT
