@<TRIPOS>MOLECULE
KME
   39    39     1     0     0
SMALL
No Charge or Current Charge


@<TRIPOS>ATOM
      1 C1           2.4700     0.7580    -1.6050 c          1 KME       0.723000
      2 C2           1.4230     0.7290    -0.3780 c6         1 KME       0.243000
      3 O2           1.9010    -0.0840     0.7350 os         1 KME      -0.380100
      4 C3           1.2360     2.1930     0.1190 c6         1 KME      -0.115400
      5 C4           0.1180     2.3240     1.1870 c6         1 KME       0.123300
      6 O4          -0.1040     3.7150     1.4820 oh         1 KME      -0.689000
      7 C5          -1.2090     1.6750     0.6950 c6         1 KME       0.157300
      8 O5          -1.7470     2.4990    -0.3570 oh         1 KME      -0.708000
      9 C6          -0.9100     0.2100     0.2390 c6         1 KME       0.158300
     10 O6           0.1200     0.2010    -0.7880 os         1 KME      -0.431000
     11 C7          -2.1720    -0.5330    -0.3090 c3         1 KME       0.180300
     12 O7          -3.1700    -0.5400     0.7530 os         1 KME      -0.468000
     13 C8          -1.8690    -2.0010    -0.7640 c3         1 KME       0.141600
     14 O8          -2.8460    -2.4960    -1.7050 oh         1 KME      -0.730000
     15 C9          -4.5050    -0.9390     0.3870 c3         1 KME       0.158900
     16 C10          2.0260    -1.4390     0.5680 c2         1 KME       0.055100
     17 C11          2.2970    -2.2400     1.6060 c2         1 KME      -0.373200
     18 C12          2.4420    -3.7440     1.5360 c3         1 KME      -0.015900
     19 O1A          3.6050     0.3480    -1.3740 o          1 KME      -0.687000
     20 O1B          2.0100     0.5540    -2.7260 o          1 KME      -0.687000
     21 H3           2.1870     2.5620     0.5260 hc         1 KME       0.071700
     22 H3A          1.0060     2.8330    -0.7440 hc         1 KME       0.071700
     23 H4           0.4390     1.7940     2.0970 h1         1 KME       0.044700
     24 HO4          0.6810     4.0310     1.9850 ho         1 KME       0.444000
     25 H5          -1.9110     1.6460     1.5420 h1         1 KME       0.036700
     26 HO5         -1.4320     3.4010    -0.1040 ho         1 KME       0.505000
     27 H6          -0.5520    -0.3620     1.1070 h1         1 KME       0.045700
     28 H7          -2.5330     0.0360    -1.1760 h1         1 KME       0.079700
     29 H8          -0.8760    -2.0350    -1.2300 h1         1 KME       0.039200
     30 H8A         -1.8240    -2.6460     0.1240 h1         1 KME       0.039200
     31 HO8         -2.5750    -3.4120    -1.9490 ho         1 KME       0.491000
     32 H9          -5.1990    -0.7300     1.2110 h1         1 KME       0.023700
     33 H9A         -4.8510    -0.3870    -0.4970 h1         1 KME       0.023700
     34 H9B         -4.5550    -2.0140     0.1770 h1         1 KME       0.023700
     35 H10          1.8780    -1.8030    -0.4520 h4         1 KME       0.187000
     36 H11          2.4280    -1.8150     2.6020 ha         1 KME       0.163000
     37 H12          1.7050    -4.2380     2.1790 hc         1 KME       0.017033
     38 H12A         2.2980    -4.1160     0.5140 hc         1 KME       0.017033
     39 H12B         3.4400    -4.0560     1.8680 hc         1 KME       0.017033
@<TRIPOS>BOND
     1     1     2 1   
     2     1    19 1   
     3     1    20 1   
     4     2     3 1   
     5     2     4 1   
     6     2    10 1   
     7     3    16 1   
     8     4     5 1   
     9     4    21 1   
    10     4    22 1   
    11     5     6 1   
    12     5     7 1   
    13     5    23 1   
    14     6    24 1   
    15     7     8 1   
    16     7     9 1   
    17     7    25 1   
    18     8    26 1   
    19     9    10 1   
    20     9    11 1   
    21     9    27 1   
    22    11    12 1   
    23    11    13 1   
    24    11    28 1   
    25    12    15 1   
    26    13    14 1   
    27    13    29 1   
    28    13    30 1   
    29    14    31 1   
    30    15    32 1   
    31    15    33 1   
    32    15    34 1   
    33    16    17 2   
    34    16    35 1   
    35    17    18 1   
    36    17    36 1   
    37    18    37 1   
    38    18    38 1   
    39    18    39 1   
@<TRIPOS>SUBSTRUCTURE
     1 KME         1 TEMP              0 ****  ****    0 ROOT
