@<TRIPOS>MOLECULE
KME
   39    39     1     0     0
SMALL
abcg2


@<TRIPOS>ATOM
      1 C1           2.2470     0.6640    -1.6010 c          1 KME       0.723000
      2 C2           1.3190     0.6470    -0.3460 c6         1 KME       0.243000
      3 O2           1.9020    -0.0440     0.7410 os         1 KME      -0.380100
      4 C3           1.0970     2.0790     0.1370 c6         1 KME      -0.115400
      5 C4           0.0170     2.1400     1.2090 c6         1 KME       0.123300
      6 O4          -0.3260     3.4690     1.5450 oh         1 KME      -0.689000
      7 C5          -1.2550     1.4590     0.7110 c6         1 KME       0.157300
      8 O5          -1.8160     2.1410    -0.3840 oh         1 KME      -0.708000
      9 C6          -0.8970     0.0410     0.2850 c6         1 KME       0.158300
     10 O6           0.1120     0.0450    -0.7070 os         1 KME      -0.431000
     11 C7          -2.0770    -0.7440    -0.2960 c3         1 KME       0.180300
     12 O7          -3.1250    -0.7250     0.6480 os         1 KME      -0.468000
     13 C8          -1.6790    -2.1840    -0.5770 c3         1 KME       0.141600
     14 O8          -2.7810    -2.8520    -1.1470 oh         1 KME      -0.730000
     15 C9          -4.3540    -0.2410     0.1630 c3         1 KME       0.158900
     16 C10          2.1280    -1.3690     0.5610 c2         1 KME       0.055100
     17 C11          2.2660    -2.2010     1.5880 c2         1 KME      -0.373200
     18 C12          2.5630    -3.6570     1.4260 c3         1 KME      -0.015900
     19 O1A          3.4610     0.5280    -1.3770 o          1 KME      -0.687000
     20 O1B          1.6850     0.8760    -2.6860 o          1 KME      -0.687000
     21 H3           2.0390     2.4920     0.5060 hc         1 KME       0.071700
     22 H3A          0.7880     2.6810    -0.7200 hc         1 KME       0.071700
     23 H4           0.3560     1.5940     2.0990 h1         1 KME       0.044700
     24 HO4          0.4800     3.9550     1.7460 ho         1 KME       0.444000
     25 H5          -1.9650     1.3970     1.5470 h1         1 KME       0.036700
     26 HO5         -1.8920     3.0710    -0.1450 ho         1 KME       0.505000
     27 H6          -0.5560    -0.4870     1.1880 h1         1 KME       0.045700
     28 H7          -2.3900    -0.2730    -1.2370 h1         1 KME       0.079700
     29 H8          -0.8110    -2.1950    -1.2450 h1         1 KME       0.039200
     30 H8A         -1.3650    -2.6530     0.3670 h1         1 KME       0.039200
     31 HO8         -2.5070    -3.7470    -1.3620 ho         1 KME       0.491000
     32 H9          -5.0720    -0.2870     0.9830 h1         1 KME       0.023700
     33 H9A         -4.2840     0.7970    -0.1740 h1         1 KME       0.023700
     34 H9B         -4.7400    -0.8460    -0.6630 h1         1 KME       0.023700
     35 H10          2.2050    -1.7270    -0.4620 h4         1 KME       0.187000
     36 H11          2.1690    -1.8170     2.5990 ha         1 KME       0.163000
     37 H12          1.7820    -4.2760     1.8740 hc         1 KME       0.017033
     38 H12A         2.6430    -3.9370     0.3750 hc         1 KME       0.017033
     39 H12B         3.5000    -3.9350     1.9140 hc         1 KME       0.017033
@<TRIPOS>BOND
     1     1     2 1   
     2     1    19 1   
     3     1    20 1   
     4     2     3 1   
     5     2     4 1   
     6     2    10 1   
     7     3    16 1   
     8     4     5 1   
     9     4    21 1   
    10     4    22 1   
    11     5     6 1   
    12     5     7 1   
    13     5    23 1   
    14     6    24 1   
    15     7     8 1   
    16     7     9 1   
    17     7    25 1   
    18     8    26 1   
    19     9    10 1   
    20     9    11 1   
    21     9    27 1   
    22    11    12 1   
    23    11    13 1   
    24    11    28 1   
    25    12    15 1   
    26    13    14 1   
    27    13    29 1   
    28    13    30 1   
    29    14    31 1   
    30    15    32 1   
    31    15    33 1   
    32    15    34 1   
    33    16    17 2   
    34    16    35 1   
    35    17    18 1   
    36    17    36 1   
    37    18    37 1   
    38    18    38 1   
    39    18    39 1   
@<TRIPOS>SUBSTRUCTURE
     1 KME         1 TEMP              0 ****  ****    0 ROOT
