@<TRIPOS>MOLECULE
KMF
   47    49     1     0     0
SMALL
No Charge or Current Charge


@<TRIPOS>ATOM
      1 N1           7.3300    -3.3180    24.1010 n3         1 KMF      -0.732600
      2 C4           7.1000    -3.4140    25.5700 c3         1 KMF       0.136800
      3 C5           8.1240    -4.2900    26.3360 c3         1 KMF       0.106000
      4 C6          10.1380    -2.8060    26.6660 c          1 KMF       0.606700
      5 C7          11.5240    -2.4850    26.1600 ca         1 KMF      -0.137600
      6 C8          12.5120    -2.2190    27.1340 ca         1 KMF      -0.058000
      7 C10         14.2150    -2.0160    25.4160 ca         1 KMF      -0.082000
      8 C13         12.6830    -2.3980    22.0560 ca         1 KMF      -0.109000
      9 C15         10.9370    -2.5920    23.7380 ca         1 KMF      -0.111000
     10 C17          6.4700    -2.2980    23.4540 c6         1 KMF       0.144800
     11 N            6.9800    -3.3300    21.1480 n          1 KMF      -0.420800
     12 N2           9.5140    -3.8860    26.0850 ns         1 KMF      -0.490900
     13 C1           7.0830    -3.2750    19.7410 c          1 KMF       0.602100
     14 C18          6.8360    -2.0790    21.9610 c6         1 KMF       0.099500
     15 C11         13.2440    -2.2380    24.4240 ca         1 KMF      -0.044000
     16 O1           7.5750    -4.2020    19.1090 o          1 KMF      -0.612100
     17 C2           7.5770    -4.4900    21.8820 c6         1 KMF       0.099500
     18 C16         11.8880    -2.4570    24.7800 ca         1 KMF      -0.014000
     19 C9          13.8460    -1.9910    26.7670 ca         1 KMF      -0.116000
     20 C12         13.6350    -2.2230    23.0710 ca         1 KMF      -0.096000
     21 C14         11.3330    -2.5700    22.3910 ca         1 KMF      -0.103000
     22 C            6.5040    -2.0660    19.0020 c3         1 KMF      -0.172100
     23 O            9.6050    -2.1590    27.5580 o          1 KMF      -0.608100
     24 C3           7.1810    -4.6090    23.3780 c6         1 KMF       0.144800
     25 H2           7.1420    -2.4070    26.0080 h1         1 KMF       0.047200
     26 H3           6.0920    -3.8030    25.7690 h1         1 KMF       0.047200
     27 H4           7.9190    -4.2260    27.4130 h1         1 KMF       0.060200
     28 H5           8.0060    -5.3410    26.0420 h1         1 KMF       0.060200
     29 H6          12.2470    -2.2210    28.1900 ha         1 KMF       0.128000
     30 H7          15.2530    -1.8440    25.1410 ha         1 KMF       0.115000
     31 H8          12.9880    -2.3790    21.0120 ha         1 KMF       0.115000
     32 H9           9.8770    -2.6820    23.9460 ha         1 KMF       0.133000
     33 H10          6.5570    -1.3340    23.9770 h1         1 KMF       0.042450
     34 H11          5.4140    -2.6010    23.5170 h1         1 KMF       0.042450
     35 H12         10.0270    -4.3590    25.3520 hn         1 KMF       0.323500
     36 H13          7.7880    -1.5310    21.9160 h1         1 KMF       0.059950
     37 H14          6.0670    -1.4280    21.5240 h1         1 KMF       0.059950
     38 H15          7.2990    -5.4260    21.3770 h1         1 KMF       0.059950
     39 H16          8.6710    -4.4050    21.8220 h1         1 KMF       0.059950
     40 H17         14.5960    -1.8050    27.5330 ha         1 KMF       0.119000
     41 H18         14.6780    -2.0650    22.8030 ha         1 KMF       0.114000
     42 H19         10.5880    -2.6770    21.6050 ha         1 KMF       0.110000
     43 H20          6.5530    -2.1770    17.9130 hc         1 KMF       0.060700
     44 H21          5.4770    -1.8930    19.3420 hc         1 KMF       0.060700
     45 H22          7.0250    -1.1590    19.3290 hc         1 KMF       0.060700
     46 H23          6.1390    -4.9560    23.4410 h1         1 KMF       0.042450
     47 H24          7.8060    -5.3900    23.8320 h1         1 KMF       0.042450
@<TRIPOS>BOND
     1     1     2 1   
     2     1    10 1   
     3     1    24 1   
     4     2     3 1   
     5     2    25 1   
     6     2    26 1   
     7     3    12 1   
     8     3    27 1   
     9     3    28 1   
    10     4     5 1   
    11     4    12 1   
    12     4    23 2   
    13     5     6 ar  
    14     5    18 ar  
    15     6    19 ar  
    16     6    29 1   
    17     7    15 ar  
    18     7    19 ar  
    19     7    30 1   
    20     8    20 ar  
    21     8    21 ar  
    22     8    31 1   
    23     9    18 ar  
    24     9    21 ar  
    25     9    32 1   
    26    10    14 1   
    27    10    33 1   
    28    10    34 1   
    29    11    13 1   
    30    11    14 1   
    31    11    17 1   
    32    12    35 1   
    33    13    16 2   
    34    13    22 1   
    35    14    36 1   
    36    14    37 1   
    37    15    18 ar  
    38    15    20 ar  
    39    17    24 1   
    40    17    38 1   
    41    17    39 1   
    42    19    40 1   
    43    20    41 1   
    44    21    42 1   
    45    22    43 1   
    46    22    44 1   
    47    22    45 1   
    48    24    46 1   
    49    24    47 1   
@<TRIPOS>SUBSTRUCTURE
     1 KMF         1 TEMP              0 ****  ****    0 ROOT
