@<TRIPOS>MOLECULE
KMF
   47    49     1     0     0
SMALL
abcg2


@<TRIPOS>ATOM
      1 N1           7.5340    -3.3580    23.8340 n3         1 KMF      -0.732600
      2 C4           7.2140    -3.2780    25.2550 c3         1 KMF       0.136800
      3 C5           8.1000    -4.1700    26.1210 c3         1 KMF       0.106000
      4 C6          10.1380    -2.9000    26.6660 c          1 KMF       0.606700
      5 C7          11.5650    -2.6340    26.2770 ca         1 KMF      -0.137600
      6 C8          12.5170    -2.7390    27.2650 ca         1 KMF      -0.058000
      7 C10         14.2770    -2.1880    25.7200 ca         1 KMF      -0.082000
      8 C13         12.8050    -1.4870    22.3780 ca         1 KMF      -0.109000
      9 C15         11.0110    -2.0670    23.8950 ca         1 KMF      -0.111000
     10 C17          6.9510    -2.2460    23.0920 c6         1 KMF       0.144800
     11 N            7.0490    -3.5680    21.0350 n          1 KMF      -0.420800
     12 N2           9.5120    -3.8650    25.9690 ns         1 KMF      -0.490900
     13 C1           6.3330    -3.7520    19.9010 c          1 KMF       0.602100
     14 C18          7.3800    -2.2800    21.6310 c6         1 KMF       0.099500
     15 C11         13.3290    -2.0380    24.6810 ca         1 KMF      -0.044000
     16 O1           6.1050    -4.8790    19.4470 o          1 KMF      -0.612100
     17 C2           7.5830    -4.7010    21.7820 c6         1 KMF       0.099500
     18 C16         11.9410    -2.2630    24.9510 ca         1 KMF      -0.014000
     19 C9          13.8800    -2.5260    26.9880 ca         1 KMF      -0.116000
     20 C12         13.7280    -1.6560    23.3760 ca         1 KMF      -0.096000
     21 C14         11.4340    -1.6900    22.6460 ca         1 KMF      -0.103000
     22 C            5.8090    -2.5210    19.1910 c3         1 KMF      -0.172100
     23 O            9.6050    -2.2920    27.5980 o          1 KMF      -0.608100
     24 C3           7.1420    -4.6310    23.2360 c6         1 KMF       0.144800
     25 H2           7.3580    -2.2430    25.5680 h1         1 KMF       0.047200
     26 H3           6.1590    -3.5350    25.4500 h1         1 KMF       0.047200
     27 H4           7.8260    -4.0280    27.1650 h1         1 KMF       0.060200
     28 H5           7.9590    -5.2230    25.8830 h1         1 KMF       0.060200
     29 H6          12.2090    -3.0040    28.2680 ha         1 KMF       0.128000
     30 H7          15.3240    -2.0220    25.4950 ha         1 KMF       0.115000
     31 H8          13.1210    -1.1930    21.3850 ha         1 KMF       0.115000
     32 H9           9.9550    -2.2230    24.0690 ha         1 KMF       0.133000
     33 H10          7.2890    -1.3100    23.5400 h1         1 KMF       0.042450
     34 H11          5.8480    -2.2660    23.1410 h1         1 KMF       0.042450
     35 H12         10.0030    -4.2910    25.1990 hn         1 KMF       0.323500
     36 H13          8.4620    -2.1330    21.5660 h1         1 KMF       0.059950
     37 H14          6.8950    -1.4740    21.0920 h1         1 KMF       0.059950
     38 H15          7.2310    -5.6180    21.3190 h1         1 KMF       0.059950
     39 H16          8.6760    -4.6760    21.7290 h1         1 KMF       0.059950
     40 H17         14.6100    -2.6340    27.7800 ha         1 KMF       0.119000
     41 H18         14.7830    -1.4940    23.1860 ha         1 KMF       0.114000
     42 H19         10.7090    -1.5440    21.8560 ha         1 KMF       0.110000
     43 H20          5.2810    -2.8460    18.2990 hc         1 KMF       0.060700
     44 H21          5.1230    -1.9600    19.8280 hc         1 KMF       0.060700
     45 H22          6.6210    -1.8510    18.9040 hc         1 KMF       0.060700
     46 H23          6.0490    -4.7730    23.2940 h1         1 KMF       0.042450
     47 H24          7.6120    -5.4510    23.7790 h1         1 KMF       0.042450
@<TRIPOS>BOND
     1     1     2 1   
     2     1    10 1   
     3     1    24 1   
     4     2     3 1   
     5     2    25 1   
     6     2    26 1   
     7     3    12 1   
     8     3    27 1   
     9     3    28 1   
    10     4     5 1   
    11     4    12 1   
    12     4    23 2   
    13     5     6 ar  
    14     5    18 ar  
    15     6    19 ar  
    16     6    29 1   
    17     7    15 ar  
    18     7    19 ar  
    19     7    30 1   
    20     8    20 ar  
    21     8    21 ar  
    22     8    31 1   
    23     9    18 ar  
    24     9    21 ar  
    25     9    32 1   
    26    10    14 1   
    27    10    33 1   
    28    10    34 1   
    29    11    13 1   
    30    11    14 1   
    31    11    17 1   
    32    12    35 1   
    33    13    16 2   
    34    13    22 1   
    35    14    36 1   
    36    14    37 1   
    37    15    18 ar  
    38    15    20 ar  
    39    17    24 1   
    40    17    38 1   
    41    17    39 1   
    42    19    40 1   
    43    20    41 1   
    44    21    42 1   
    45    22    43 1   
    46    22    44 1   
    47    22    45 1   
    48    24    46 1   
    49    24    47 1   
@<TRIPOS>SUBSTRUCTURE
     1 KMF         1 TEMP              0 ****  ****    0 ROOT
