@<TRIPOS>MOLECULE
KMG
   35    36     1     0     0
SMALL
No Charge or Current Charge


@<TRIPOS>ATOM
      1 C01          4.7840     0.4910     2.2040 c3         1 KMG      -0.033900
      2 C02          4.2480     0.5100     0.7980 cc         1 KMG      -0.088300
      3 C05          2.9700     0.3320    -1.0160 ca         1 KMG      -0.063000
      4 C06          2.9590     0.1300     0.3410 ca         1 KMG      -0.145000
      5 C07          1.8430    -0.3600     1.0320 ca         1 KMG      -0.082000
      6 C08          0.6750    -0.6540     0.2970 ca         1 KMG       0.216000
      7 C11         -2.4140     0.6220     0.2520 c3         1 KMG      -0.343400
      8 C12         -3.8920     0.8710    -0.1310 c3         1 KMG      -0.044400
      9 C13         -4.1820     2.3610    -0.4090 c3         1 KMG      -0.069400
     10 C14         -5.6510     2.6290    -0.7920 c3         1 KMG      -0.091100
     11 C17          0.6780    -0.4540    -1.1090 ca         1 KMG      -0.078000
     12 C18          1.8240     0.0410    -1.7700 ca         1 KMG      -0.069000
     13 N03          4.9550     0.9210    -0.3260 na         1 KMG       0.017500
     14 N04          4.1870     0.8250    -1.4960 nc         1 KMG      -0.272400
     15 N09         -0.4370    -1.1410     0.9910 nu         1 KMG      -0.863100
     16 O15         -2.7530    -1.5240     1.7940 o          1 KMG      -0.524000
     17 O16         -2.1800    -1.8860    -0.6560 o          1 KMG      -0.524000
     18 S10         -2.0490    -1.1100     0.5790 s6         1 KMG       1.169100
     19 H1           4.7530    -0.5240     2.6180 hc         1 KMG       0.054700
     20 H2           5.8230     0.8390     2.2430 hc         1 KMG       0.054700
     21 H3           4.1870     1.1390     2.8560 hc         1 KMG       0.054700
     22 H4           1.8800    -0.5060     2.1080 ha         1 KMG       0.111000
     23 H5          -1.7490     0.9330    -0.5610 h1         1 KMG       0.090700
     24 H6          -2.1520     1.1680     1.1640 h1         1 KMG       0.090700
     25 H7          -4.1450     0.2830    -1.0230 hc         1 KMG       0.058700
     26 H8          -4.5450     0.5220     0.6800 hc         1 KMG       0.058700
     27 H9          -3.9320     2.9520     0.4810 hc         1 KMG       0.038200
     28 H10         -3.5320     2.7120    -1.2190 hc         1 KMG       0.038200
     29 H11         -5.9220     2.0790    -1.7010 hc         1 KMG       0.035033
     30 H12         -6.3250     2.3200     0.0150 hc         1 KMG       0.035033
     31 H13         -5.8070     3.6980    -0.9790 hc         1 KMG       0.035033
     32 H14         -0.1990    -0.6840    -1.7030 ha         1 KMG       0.144000
     33 H15          1.8190     0.1920    -2.8470 ha         1 KMG       0.136000
     34 H16          5.9130     1.2580    -0.3540 hn         1 KMG       0.371000
     35 H17         -0.4070    -1.1430     2.0020 hn         1 KMG       0.482000
@<TRIPOS>BOND
     1     1     2 1   
     2     1    19 1   
     3     1    20 1   
     4     1    21 1   
     5     2     4 2   
     6     2    13 1   
     7     3     4 ar  
     8     3    12 ar  
     9     3    14 2   
    10     4     5 ar  
    11     5     6 ar  
    12     5    22 1   
    13     6    11 ar  
    14     6    15 1   
    15     7     8 1   
    16     7    18 1   
    17     7    23 1   
    18     7    24 1   
    19     8     9 1   
    20     8    25 1   
    21     8    26 1   
    22     9    10 1   
    23     9    27 1   
    24     9    28 1   
    25    10    29 1   
    26    10    30 1   
    27    10    31 1   
    28    11    12 ar  
    29    11    32 1   
    30    12    33 1   
    31    13    14 1   
    32    13    34 1   
    33    15    18 1   
    34    15    35 1   
    35    16    18 2   
    36    17    18 2   
@<TRIPOS>SUBSTRUCTURE
     1 KMG         1 TEMP              0 ****  ****    0 ROOT
