@<TRIPOS>MOLECULE
KMG
   35    36     1     0     0
SMALL
bcc


@<TRIPOS>ATOM
      1 C01          3.7540     1.6550     1.9830 c3         1 KMG      -0.033900
      2 C02          3.5720     0.9680     0.6800 cc         1 KMG      -0.088300
      3 C05          2.9760    -0.2380    -1.0980 ca         1 KMG      -0.063000
      4 C06          2.5680     0.1180     0.2160 ca         1 KMG      -0.145000
      5 C07          1.3640    -0.3700     0.7600 ca         1 KMG      -0.100000
      6 C08          0.6150    -1.2240    -0.0040 ca         1 KMG       0.077600
      7 C11         -2.2040     0.4310     0.4270 c3         1 KMG      -0.232600
      8 C12         -3.5230     1.0270    -0.0450 c3         1 KMG      -0.044400
      9 C13         -3.6130     2.5060     0.3160 c3         1 KMG      -0.069400
     10 C14         -4.9250     3.1270    -0.1410 c3         1 KMG      -0.091100
     11 C17          1.0330    -1.6040    -1.3150 ca         1 KMG      -0.096000
     12 C18          2.1820    -1.1190    -1.8690 ca         1 KMG      -0.087000
     13 N03          4.4410     1.0450    -0.3340 na         1 KMG       0.067800
     14 N04          4.1320     0.3440    -1.4190 nc         1 KMG      -0.272400
     15 N09         -0.5720    -1.8060     0.5210 nu         1 KMG      -0.669500
     16 O15         -3.0390    -2.0630     0.7170 o          1 KMG      -0.594800
     17 O16         -2.0360    -1.3810    -1.4810 o          1 KMG      -0.594800
     18 S10         -2.0560    -1.2930    -0.0290 s6         1 KMG       1.199900
     19 H1           4.2600     1.0090     2.7040 hc         1 KMG       0.054700
     20 H2           4.3440     2.5640     1.8800 hc         1 KMG       0.054700
     21 H3           2.7880     1.9260     2.4070 hc         1 KMG       0.054700
     22 H4           1.0450    -0.0890     1.7570 ha         1 KMG       0.129000
     23 H5          -1.3510     0.9500    -0.0150 h1         1 KMG       0.090700
     24 H6          -2.1070     0.4760     1.5140 h1         1 KMG       0.090700
     25 H7          -3.6160     0.9100    -1.1270 hc         1 KMG       0.058700
     26 H8          -4.3570     0.4880     0.4110 hc         1 KMG       0.058700
     27 H9          -3.5060     2.6240     1.3980 hc         1 KMG       0.038200
     28 H10         -2.7740     3.0410    -0.1370 hc         1 KMG       0.038200
     29 H11         -5.0460     3.0430    -1.2220 hc         1 KMG       0.035033
     30 H12         -5.7790     2.6330     0.3260 hc         1 KMG       0.035033
     31 H13         -4.9730     4.1850     0.1160 hc         1 KMG       0.035033
     32 H14          0.4250    -2.3050    -1.8680 ha         1 KMG       0.162000
     33 H15          2.4850    -1.4150    -2.8650 ha         1 KMG       0.154000
     34 H16          5.2930     1.5860    -0.3320 hn         1 KMG       0.320700
     35 H17         -0.5730    -1.9040     1.5320 hn         1 KMG       0.426800
@<TRIPOS>BOND
     1     1     2 1   
     2     1    19 1   
     3     1    20 1   
     4     1    21 1   
     5     2     4 2   
     6     2    13 1   
     7     3     4 ar  
     8     3    12 ar  
     9     3    14 2   
    10     4     5 ar  
    11     5     6 ar  
    12     5    22 1   
    13     6    11 ar  
    14     6    15 1   
    15     7     8 1   
    16     7    18 1   
    17     7    23 1   
    18     7    24 1   
    19     8     9 1   
    20     8    25 1   
    21     8    26 1   
    22     9    10 1   
    23     9    27 1   
    24     9    28 1   
    25    10    29 1   
    26    10    30 1   
    27    10    31 1   
    28    11    12 ar  
    29    11    32 1   
    30    12    33 1   
    31    13    14 1   
    32    13    34 1   
    33    15    18 1   
    34    15    35 1   
    35    16    18 2   
    36    17    18 2   
@<TRIPOS>SUBSTRUCTURE
     1 KMG         1 TEMP              0 ****  ****    0 ROOT
