@<TRIPOS>MOLECULE
KMH
   20    19     1     0     0
SMALL
abcg2


@<TRIPOS>ATOM
      1 N           -2.9390     0.8470    -1.0040 n8         1 KMH      -1.009200
      2 CB          -2.4240     0.1710     0.1800 c3         1 KMH       0.170500
      3 CG          -3.4820    -0.7930     0.7020 c3         1 KMH      -0.084100
      4 CE           2.1420    -0.8420     0.5700 c          1 KMH       0.734000
      5 OF1          1.6650    -0.4490     1.6510 o          1 KMH      -0.723500
      6 OF2          3.1850    -1.4910     0.3920 o          1 KMH      -0.723500
      7 CA          -1.1090    -0.5770    -0.0380 c3         1 KMH      -0.227400
      8 C            0.0880     0.2710    -0.3860 c          1 KMH       0.617100
      9 C2           1.3500    -0.4710    -0.7150 c3         1 KMH      -0.332400
     10 O            0.0440     1.4850    -0.3820 o          1 KMH      -0.584100
     11 HN1         -2.2570     1.5160    -1.3390 hn         1 KMH       0.391500
     12 HN2         -3.0580     0.1720    -1.7520 hn         1 KMH       0.391500
     13 HB          -2.2620     0.9390     0.9420 h1         1 KMH       0.074700
     14 HG1C        -3.6670    -1.5950    -0.0160 hc         1 KMH       0.027367
     15 HG2C        -3.1670    -1.2560     1.6380 hc         1 KMH       0.027367
     16 HG3C        -4.4250    -0.2760     0.8790 hc         1 KMH       0.027367
     17 HA1C        -0.8320    -1.1400     0.8610 hc         1 KMH       0.067700
     18 HA2C        -1.2340    -1.3340    -0.8210 hc         1 KMH       0.067700
     19 H21C         1.9880     0.1480    -1.3510 hc         1 KMH       0.043200
     20 H22C         1.1270    -1.3860    -1.2710 hc         1 KMH       0.043200
@<TRIPOS>BOND
     1     1     2 1   
     2     1    11 1   
     3     1    12 1   
     4     2     3 1   
     5     2     7 1   
     6     2    13 1   
     7     3    14 1   
     8     3    15 1   
     9     3    16 1   
    10     4     5 1   
    11     4     6 1   
    12     4     9 1   
    13     7     8 1   
    14     7    17 1   
    15     7    18 1   
    16     8     9 1   
    17     8    10 2   
    18     9    19 1   
    19     9    20 1   
@<TRIPOS>SUBSTRUCTURE
     1 KMH         1 TEMP              0 ****  ****    0 ROOT
