@<TRIPOS>MOLECULE
KMH
   20    19     1     0     0
SMALL
No Charge or Current Charge


@<TRIPOS>ATOM
      1 N           -2.9700     0.8990    -0.8400 n8         1 KMH      -1.009200
      2 CB          -2.4230     0.0330     0.2130 c3         1 KMH       0.170500
      3 CG          -3.4820    -1.0060     0.6350 c3         1 KMH      -0.084100
      4 CE           2.1090    -0.5560     0.6690 c          1 KMH       0.734000
      5 OF1          2.8360     0.3440     1.0540 o          1 KMH      -0.723500
      6 OF2          1.8440    -1.5470     1.3290 o          1 KMH      -0.723500
      7 CA          -1.1220    -0.6320    -0.2770 c3         1 KMH      -0.227400
      8 C            0.1150     0.2780    -0.3790 c          1 KMH       0.617100
      9 C2           1.4370    -0.4060    -0.6750 c3         1 KMH      -0.332400
     10 O            0.0440     1.4960    -0.2620 o          1 KMH      -0.584100
     11 HN1         -2.2520     1.5890    -1.0920 hn         1 KMH       0.391500
     12 HN2         -3.0880     0.3460    -1.6960 hn         1 KMH       0.391500
     13 HB          -2.1940     0.6530     1.0950 h1         1 KMH       0.074700
     14 HG1C        -3.7430    -1.6660    -0.2010 hc         1 KMH       0.027367
     15 HG2C        -3.1040    -1.6270     1.4560 hc         1 KMH       0.027367
     16 HG3C        -4.3960    -0.5100     0.9840 hc         1 KMH       0.027367
     17 HA1C        -0.8430    -1.4760     0.3630 hc         1 KMH       0.067700
     18 HA2C        -1.2510    -1.1450    -1.2370 hc         1 KMH       0.067700
     19 H21C         2.0110     0.2700    -1.3200 hc         1 KMH       0.043200
     20 H22C         1.2040    -1.3970    -1.0800 hc         1 KMH       0.043200
@<TRIPOS>BOND
     1     1     2 1   
     2     1    11 1   
     3     1    12 1   
     4     2     3 1   
     5     2     7 1   
     6     2    13 1   
     7     3    14 1   
     8     3    15 1   
     9     3    16 1   
    10     4     5 1   
    11     4     6 1   
    12     4     9 1   
    13     7     8 1   
    14     7    17 1   
    15     7    18 1   
    16     8     9 1   
    17     8    10 2   
    18     9    19 1   
    19     9    20 1   
@<TRIPOS>SUBSTRUCTURE
     1 KMH         1 TEMP              0 ****  ****    0 ROOT
