@<TRIPOS>MOLECULE
KMI
   34    35     1     0     0
SMALL
abcg2


@<TRIPOS>ATOM
      1 C13        -20.2030     0.2220    24.9560 ca         1 KMI      -0.124000
      2 C11        -22.1220    -0.9000    23.9980 cp         1 KMI      -0.148500
      3 C12        -21.4070     0.2720    24.2620 ca         1 KMI      -0.066000
      4 C14        -19.7000    -0.9940    25.4020 ca         1 KMI      -0.075000
      5 C02        -25.2460     0.3900    22.6410 ca         1 KMI       0.595900
      6 C03        -25.7450    -0.6600    21.8490 ca         1 KMI      -0.227000
      7 C04        -25.0250    -1.8370    21.7620 ca         1 KMI      -0.002300
      8 C05        -23.8230    -1.9290    22.4750 ca         1 KMI      -0.208000
      9 C06        -23.3970    -0.8500    23.2400 cp         1 KMI       0.453500
     10 C15        -20.4030    -2.1760    25.1620 ca         1 KMI      -0.097300
     11 C16        -21.6040    -2.1150    24.4620 ca         1 KMI      -0.091000
     12 C17        -19.8570    -3.5030    25.6180 c3         1 KMI       0.201100
     13 C19        -18.3490    -5.3220    25.0580 c3         1 KMI       0.141100
     14 N01        -24.0990     0.2950    23.3150 nb         1 KMI      -0.747000
     15 N02        -25.9610     1.5560    22.7920 nv         1 KMI      -1.055900
     16 N18        -18.8370    -3.9970    24.6870 n7         1 KMI      -0.857400
     17 H1         -19.6570     1.1370    25.1500 ha         1 KMI       0.115000
     18 H2         -21.7990     1.2180    23.9160 ha         1 KMI       0.129000
     19 H3         -18.7640    -1.0310    25.9460 ha         1 KMI       0.119000
     20 H4         -26.6790    -0.5380    21.3150 ha         1 KMI       0.119000
     21 H5         -23.2230    -2.8260    22.4040 ha         1 KMI       0.121000
     22 H6         -25.8220    -3.8180    21.5780 hc         1 KMI       0.047033
     23 H7         -26.3590    -2.7060    20.3120 hc         1 KMI       0.047033
     24 H8         -24.7140    -3.3690    20.2890 hc         1 KMI       0.047033
     25 H9         -22.1550    -3.0320    24.2950 ha         1 KMI       0.109000
     26 H10        -19.3860    -3.3960    26.5990 h1         1 KMI       0.037200
     27 H11        -20.6850    -4.2180    25.7330 h1         1 KMI       0.037200
     28 H12        -17.6470    -5.6780    24.3030 h1         1 KMI       0.030033
     29 H13        -17.8200    -5.2610    26.0120 h1         1 KMI       0.030033
     30 H14        -19.1510    -6.0680    25.1660 h1         1 KMI       0.030033
     31 H15        -25.4360     2.3470    23.1320 hn         1 KMI       0.467500
     32 H16        -26.6370     1.7770    22.0770 hn         1 KMI       0.467500
     33 H17        -19.2460    -4.0400    23.7590 hn         1 KMI       0.407000
     34 C07        -25.5110    -2.9910    20.9330 c3         1 KMI      -0.052800
@<TRIPOS>BOND
     1     1     3 ar  
     2     1     4 ar  
     3     1    17 1   
     4     2     3 ar  
     5     2     9 1   
     6     2    11 ar  
     7     3    18 1   
     8     4    10 ar  
     9     4    19 1   
    10     5     6 ar  
    11     5    14 ar  
    12     5    15 1   
    13     6     7 ar  
    14     6    20 1   
    15     7     8 ar  
    16     7    34 1   
    17     8     9 ar  
    18     8    21 1   
    19     9    14 ar  
    20    10    11 ar  
    21    10    12 1   
    22    11    25 1   
    23    12    16 1   
    24    12    26 1   
    25    12    27 1   
    26    13    16 1   
    27    13    28 1   
    28    13    29 1   
    29    13    30 1   
    30    15    31 1   
    31    15    32 1   
    32    16    33 1   
    33    22    34 1   
    34    23    34 1   
    35    24    34 1   
@<TRIPOS>SUBSTRUCTURE
     1 KMI         1 TEMP              0 ****  ****    0 ROOT
