@<TRIPOS>MOLECULE
KMI
   34    35     1     0     0
SMALL
No Charge or Current Charge


@<TRIPOS>ATOM
      1 C13        -20.2280     0.2540    25.0450 ca         1 KMI      -0.124000
      2 C11        -22.1410    -0.8910    23.9970 cp         1 KMI      -0.148500
      3 C12        -21.4310     0.2980    24.3210 ca         1 KMI      -0.066000
      4 C14        -19.7030    -0.9760    25.4690 ca         1 KMI      -0.075000
      5 C02        -25.2670     0.3810    22.5900 ca         1 KMI       0.595900
      6 C03        -25.8100    -0.6510    21.8250 ca         1 KMI      -0.227000
      7 C04        -25.1060    -1.8600    21.7460 ca         1 KMI      -0.002300
      8 C05        -23.8980    -1.9490    22.4570 ca         1 KMI      -0.208000
      9 C06        -23.4300    -0.8440    23.2160 cp         1 KMI       0.453500
     10 C15        -20.3820    -2.1720    25.1720 ca         1 KMI      -0.097300
     11 C16        -21.5880    -2.1230    24.4440 ca         1 KMI      -0.091000
     12 C17        -19.8210    -3.5060    25.6440 c3         1 KMI       0.201100
     13 C19        -18.2360    -5.3240    25.0300 c3         1 KMI       0.141100
     14 N01        -24.1270     0.3150    23.2580 nb         1 KMI      -0.747000
     15 N02        -25.8390     1.5800    22.7260 nv         1 KMI      -1.055900
     16 N18        -18.8170    -4.0110    24.6910 n7         1 KMI      -0.857400
     17 H1         -19.7000     1.1770    25.2770 ha         1 KMI       0.115000
     18 H2         -21.8100     1.2660    24.0010 ha         1 KMI       0.129000
     19 H3         -18.7700    -1.0030    26.0270 ha         1 KMI       0.119000
     20 H4         -26.7520    -0.5140    21.3030 ha         1 KMI       0.119000
     21 H5         -23.3180    -2.8650    22.4090 ha         1 KMI       0.121000
     22 H6         -26.1800    -3.7330    21.5620 hc         1 KMI       0.047033
     23 H7         -26.3050    -2.6920    20.1330 hc         1 KMI       0.047033
     24 H8         -24.8080    -3.5780    20.4510 hc         1 KMI       0.047033
     25 H9         -22.1070    -3.0560    24.2410 ha         1 KMI       0.109000
     26 H10        -19.3730    -3.3760    26.6400 h1         1 KMI       0.037200
     27 H11        -20.6460    -4.2260    25.7510 h1         1 KMI       0.037200
     28 H12        -17.4960    -5.6250    24.2760 h1         1 KMI       0.030033
     29 H13        -17.7320    -5.2890    26.0050 h1         1 KMI       0.030033
     30 H14        -19.0140    -6.0990    25.0720 h1         1 KMI       0.030033
     31 H15        -25.2330     2.2980    23.1040 hn         1 KMI       0.467500
     32 H16        -26.5000     1.8700    22.0140 hn         1 KMI       0.467500
     33 H17        -19.2720    -4.0880    23.7720 hn         1 KMI       0.407000
     34 C07        -25.6280    -3.0290    20.9280 c3         1 KMI      -0.052800
@<TRIPOS>BOND
     1     1     3 ar  
     2     1     4 ar  
     3     1    17 1   
     4     2     3 ar  
     5     2     9 1   
     6     2    11 ar  
     7     3    18 1   
     8     4    10 ar  
     9     4    19 1   
    10     5     6 ar  
    11     5    14 ar  
    12     5    15 1   
    13     6     7 ar  
    14     6    20 1   
    15     7     8 ar  
    16     7    34 1   
    17     8     9 ar  
    18     8    21 1   
    19     9    14 ar  
    20    10    11 ar  
    21    10    12 1   
    22    11    25 1   
    23    12    16 1   
    24    12    26 1   
    25    12    27 1   
    26    13    16 1   
    27    13    28 1   
    28    13    29 1   
    29    13    30 1   
    30    15    31 1   
    31    15    32 1   
    32    16    33 1   
    33    22    34 1   
    34    23    34 1   
    35    24    34 1   
@<TRIPOS>SUBSTRUCTURE
     1 KMI         1 TEMP              0 ****  ****    0 ROOT
