@<TRIPOS>MOLECULE
KMJ
   49    50     1     0     0
SMALL
No Charge or Current Charge


@<TRIPOS>ATOM
      1 C02         -5.9030     0.2300    -0.1670 ca         1 KMJ       0.599900
      2 C03         -6.1540    -1.1430    -0.2090 ca         1 KMJ      -0.231000
      3 C04         -5.0900    -2.0230     0.0390 ca         1 KMJ       0.001700
      4 C05         -3.8350    -1.4560     0.3150 ca         1 KMJ      -0.212000
      5 C06         -3.6970    -0.0540     0.3370 ca         1 KMJ       0.396300
      6 C07         -5.2840    -3.5300     0.0030 c3         1 KMJ      -0.053800
      7 C08         -2.3490     0.5870     0.6260 c3         1 KMJ      -0.122700
      8 C09         -1.4390     0.6340    -0.6210 c3         1 KMJ      -0.026100
      9 C11         -0.0760     1.2480    -0.3150 ca         1 KMJ      -0.085300
     10 C12          0.9700     0.4690     0.2300 ca         1 KMJ       0.153000
     11 C13          2.2280     1.0460     0.5160 ca         1 KMJ      -0.086300
     12 C14          2.4330     2.4150     0.2480 ca         1 KMJ      -0.132000
     13 C15          1.3960     3.1900    -0.2900 ca         1 KMJ       0.158000
     14 C16          0.1470     2.6160    -0.5710 ca         1 KMJ      -0.128000
     15 C17          3.3650     0.2120     1.0990 c3         1 KMJ      -0.029100
     16 C18          4.1460    -0.5500     0.0060 c3         1 KMJ      -0.075400
     17 C19          5.3110    -1.3920     0.5770 c3         1 KMJ       0.165800
     18 C21          6.6540    -1.5070    -1.5150 c3         1 KMJ       0.149100
     19 C22          6.9360    -3.2040     0.2340 c3         1 KMJ       0.149100
     20 F12          0.7630    -0.8460     0.4820 f          1 KMJ      -0.178000
     21 F15          1.6010     4.5020    -0.5410 f          1 KMJ      -0.177000
     22 N01         -4.7290     0.7850     0.0970 nb         1 KMJ      -0.755000
     23 N02         -6.8380     1.1580    -0.3780 nv         1 KMJ      -1.054900
     24 N20          6.0010    -2.2570    -0.4140 n3         1 KMJ      -0.710600
     25 H1          -7.1480    -1.5150    -0.4330 ha         1 KMJ       0.119000
     26 H2          -2.9740    -2.0880     0.5100 ha         1 KMJ       0.123000
     27 H3          -5.0740    -3.9260    -0.9980 hc         1 KMJ       0.047033
     28 H4          -4.6160    -4.0340     0.7110 hc         1 KMJ       0.047033
     29 H5          -6.3120    -3.8060     0.2640 hc         1 KMJ       0.047033
     30 H6          -2.4830     1.6060     1.0100 hc         1 KMJ       0.057200
     31 H7          -1.8410     0.0260     1.4190 hc         1 KMJ       0.057200
     32 H8          -1.3180    -0.3800    -1.0210 hc         1 KMJ       0.066200
     33 H9          -1.9450     1.2070    -1.4090 hc         1 KMJ       0.066200
     34 H10          3.3940     2.8790     0.4560 ha         1 KMJ       0.133000
     35 H11         -0.6440     3.2350    -0.9850 ha         1 KMJ       0.139000
     36 H12          4.0610     0.8560     1.6510 hc         1 KMJ       0.052700
     37 H13          2.9740    -0.5050     1.8320 hc         1 KMJ       0.052700
     38 H14          3.4580    -1.2100    -0.5340 hc         1 KMJ       0.053700
     39 H15          4.5320     0.1780    -0.7160 hc         1 KMJ       0.053700
     40 H16          6.0350    -0.7150     1.0510 h1         1 KMJ       0.028200
     41 H17          4.8980    -2.0250     1.3740 h1         1 KMJ       0.028200
     42 H18          7.1530    -2.1960    -2.2090 h1         1 KMJ       0.030200
     43 H19          5.9200    -0.9330    -2.0960 h1         1 KMJ       0.030200
     44 H20          7.4070    -0.8110    -1.1220 h1         1 KMJ       0.030200
     45 H21          7.7550    -2.6680     0.7320 h1         1 KMJ       0.030200
     46 H22          6.4150    -3.8110     0.9860 h1         1 KMJ       0.030200
     47 H23          7.3720    -3.8880    -0.5070 h1         1 KMJ       0.030200
     48 H24         -7.8050     0.8840    -0.2450 hn         1 KMJ       0.468000
     49 H25         -6.5860     2.0960    -0.0920 hn         1 KMJ       0.468000
@<TRIPOS>BOND
     1     1     2 ar  
     2     1    22 ar  
     3     1    23 1   
     4     2     3 ar  
     5     2    25 1   
     6     3     4 ar  
     7     3     6 1   
     8     4     5 ar  
     9     4    26 1   
    10     5     7 1   
    11     5    22 ar  
    12     6    27 1   
    13     6    28 1   
    14     6    29 1   
    15     7     8 1   
    16     7    30 1   
    17     7    31 1   
    18     8     9 1   
    19     8    32 1   
    20     8    33 1   
    21     9    10 ar  
    22     9    14 ar  
    23    10    11 ar  
    24    10    20 1   
    25    11    12 ar  
    26    11    15 1   
    27    12    13 ar  
    28    12    34 1   
    29    13    14 ar  
    30    13    21 1   
    31    14    35 1   
    32    15    16 1   
    33    15    36 1   
    34    15    37 1   
    35    16    17 1   
    36    16    38 1   
    37    16    39 1   
    38    17    24 1   
    39    17    40 1   
    40    17    41 1   
    41    18    24 1   
    42    18    42 1   
    43    18    43 1   
    44    18    44 1   
    45    19    24 1   
    46    19    45 1   
    47    19    46 1   
    48    19    47 1   
    49    23    48 1   
    50    23    49 1   
@<TRIPOS>SUBSTRUCTURE
     1 KMJ         1 TEMP              0 ****  ****    0 ROOT
