@<TRIPOS>MOLECULE
KMJ
   49    50     1     0     0
SMALL
abcg2


@<TRIPOS>ATOM
      1 C02         -5.5890     0.1690    -0.7410 ca         1 KMJ       0.599900
      2 C03         -6.0630    -1.1080    -0.3920 ca         1 KMJ      -0.231000
      3 C04         -5.2610    -1.9400     0.3610 ca         1 KMJ       0.001700
      4 C05         -3.9990    -1.4680     0.7440 ca         1 KMJ      -0.212000
      5 C06         -3.6130    -0.1970     0.3580 ca         1 KMJ       0.396300
      6 C07         -5.7120    -3.3130     0.7550 c3         1 KMJ      -0.053800
      7 C08         -2.2640     0.3510     0.7270 c3         1 KMJ      -0.122700
      8 C09         -1.3780     0.5520    -0.5100 c3         1 KMJ      -0.026100
      9 C11         -0.0550     1.1680    -0.1560 ca         1 KMJ      -0.085300
     10 C12          1.0090     0.4050     0.2980 ca         1 KMJ       0.153000
     11 C13          2.2390     0.9310     0.6700 ca         1 KMJ      -0.086300
     12 C14          2.3960     2.3110     0.5820 ca         1 KMJ      -0.132000
     13 C15          1.3460     3.0870     0.1350 ca         1 KMJ       0.158000
     14 C16          0.1320     2.5460    -0.2330 ca         1 KMJ      -0.128000
     15 C17          3.3730     0.0480     1.1030 c3         1 KMJ      -0.029100
     16 C18          4.1300    -0.5420    -0.0900 c3         1 KMJ      -0.075400
     17 C19          5.2850    -1.4160     0.3770 c3         1 KMJ       0.165800
     18 C21          6.6730    -1.1660    -1.5790 c3         1 KMJ       0.149100
     19 C22          6.9080    -3.0710    -0.1740 c3         1 KMJ       0.149100
     20 F12          0.8410    -0.9300     0.3840 f          1 KMJ      -0.178000
     21 F15          1.5120     4.4180     0.0540 f          1 KMJ      -0.177000
     22 N01         -4.3920     0.6070    -0.3680 nb         1 KMJ      -0.755000
     23 N02         -6.3410     0.9990    -1.5220 nv         1 KMJ      -1.054900
     24 N20          5.9850    -2.0890    -0.7020 n3         1 KMJ      -0.710600
     25 H1          -7.0480    -1.4260    -0.7140 ha         1 KMJ       0.119000
     26 H2          -3.3390    -2.0820     1.3420 ha         1 KMJ       0.123000
     27 H3          -5.1310    -4.0740     0.2310 hc         1 KMJ       0.047033
     28 H4          -5.5670    -3.4790     1.8230 hc         1 KMJ       0.047033
     29 H5          -6.7630    -3.4750     0.5230 hc         1 KMJ       0.047033
     30 H6          -2.3890     1.3130     1.2320 hc         1 KMJ       0.057200
     31 H7          -1.7720    -0.3200     1.4340 hc         1 KMJ       0.057200
     32 H8          -1.2360    -0.4050    -1.0170 hc         1 KMJ       0.066200
     33 H9          -1.8980     1.2060    -1.2120 hc         1 KMJ       0.066200
     34 H10          3.3350     2.7700     0.8650 ha         1 KMJ       0.133000
     35 H11         -0.6710     3.1840    -0.5820 ha         1 KMJ       0.139000
     36 H12          4.0650     0.6330     1.7120 hc         1 KMJ       0.052700
     37 H13          3.0060    -0.7600     1.7400 hc         1 KMJ       0.052700
     38 H14          3.4540    -1.1380    -0.7080 hc         1 KMJ       0.053700
     39 H15          4.4890     0.2790    -0.7150 hc         1 KMJ       0.053700
     40 H16          5.9770    -0.8090     0.9890 h1         1 KMJ       0.028200
     41 H17          4.8830    -2.1860     1.0430 h1         1 KMJ       0.028200
     42 H18          7.2190    -1.7220    -2.3420 h1         1 KMJ       0.030200
     43 H19          5.9690    -0.5150    -2.0980 h1         1 KMJ       0.030200
     44 H20          7.3960    -0.5250    -1.0500 h1         1 KMJ       0.030200
     45 H21          7.7040    -2.6320     0.4490 h1         1 KMJ       0.030200
     46 H22          6.3730    -3.7980     0.4390 h1         1 KMJ       0.030200
     47 H23          7.3880    -3.6120    -0.9910 h1         1 KMJ       0.030200
     48 H24         -7.3340     0.8360    -1.5500 hn         1 KMJ       0.468000
     49 H25         -6.0860     1.9730    -1.5070 hn         1 KMJ       0.468000
@<TRIPOS>BOND
     1     1     2 ar  
     2     1    22 ar  
     3     1    23 1   
     4     2     3 ar  
     5     2    25 1   
     6     3     4 ar  
     7     3     6 1   
     8     4     5 ar  
     9     4    26 1   
    10     5     7 1   
    11     5    22 ar  
    12     6    27 1   
    13     6    28 1   
    14     6    29 1   
    15     7     8 1   
    16     7    30 1   
    17     7    31 1   
    18     8     9 1   
    19     8    32 1   
    20     8    33 1   
    21     9    10 ar  
    22     9    14 ar  
    23    10    11 ar  
    24    10    20 1   
    25    11    12 ar  
    26    11    15 1   
    27    12    13 ar  
    28    12    34 1   
    29    13    14 ar  
    30    13    21 1   
    31    14    35 1   
    32    15    16 1   
    33    15    36 1   
    34    15    37 1   
    35    16    17 1   
    36    16    38 1   
    37    16    39 1   
    38    17    24 1   
    39    17    40 1   
    40    17    41 1   
    41    18    24 1   
    42    18    42 1   
    43    18    43 1   
    44    18    44 1   
    45    19    24 1   
    46    19    45 1   
    47    19    46 1   
    48    19    47 1   
    49    23    48 1   
    50    23    49 1   
@<TRIPOS>SUBSTRUCTURE
     1 KMJ         1 TEMP              0 ****  ****    0 ROOT
