@<TRIPOS>MOLECULE
KMK
   66    69     1     0     0
SMALL
No Charge or Current Charge


@<TRIPOS>ATOM
      1 C2          10.1690   -11.5430    14.7440 ca         1 KMK       0.452900
      2 C7           9.2570   -16.0250    14.0500 ca         1 KMK       0.091900
      3 C4           8.0360   -12.0890    14.2850 ca         1 KMK       0.467900
      4 C6           7.9040   -15.7090    13.8270 ca         1 KMK       0.215300
      5 CBG         16.0330   -20.8070    20.5790 c3         1 KMK       0.151900
      6 OBE         14.6950   -20.2870    20.6940 os         1 KMK      -0.445100
      7 OBF         13.9500   -21.6290    18.9920 o          1 KMK      -0.483000
      8 CAZ         12.3430   -20.1500    20.0540 c6         1 KMK      -0.119700
      9 CBA         11.8460   -19.3160    18.8520 c6         1 KMK      -0.081900
     10 CAV         10.4800   -18.6600    19.1620 c6         1 KMK       0.096500
     11 CAY         11.2770   -21.1500    20.5530 c6         1 KMK      -0.081900
     12 CAX          9.9210   -20.4480    20.8020 c6         1 KMK       0.096500
     13 NAW          9.4490   -19.6310    19.6450 n          1 KMK      -0.413800
     14 OBC          7.3450   -19.4380    20.5510 o          1 KMK      -0.604100
     15 CAU          7.5480   -18.6990    18.2960 ca         1 KMK      -0.207600
     16 CAT          8.1120   -19.0540    17.0520 ca         1 KMK      -0.024000
     17 CAO          7.5790   -18.5430    15.8580 ca         1 KMK      -0.207000
     18 CAQ          6.4160   -17.8610    18.3100 ca         1 KMK      -0.024000
     19 CAR          5.8890   -17.3530    17.1100 ca         1 KMK      -0.207000
     20 CAS          6.4670   -17.6790    15.8680 ca         1 KMK       0.369000
     21 N10          5.9520   -17.1530    14.6530 nh         1 KMK      -0.827400
     22 CAP          4.5050   -16.8630    14.4690 c3         1 KMK       0.236800
     23 CBH          4.1510   -15.3670    14.2810 c3         1 KMK      -0.103400
     24 CBI          4.4700   -14.4810    15.5010 c3         1 KMK       0.160600
     25 OBJ          4.2420   -13.1040    15.1740 oh         1 KMK      -0.679000
     26 C9           6.8670   -16.8000    13.5230 c3         1 KMK       0.195500
     27 N5           7.4740   -14.4260    13.8790 nb         1 KMK      -0.587000
     28 C4A          8.3920   -13.4640    14.1720 ca         1 KMK       0.031000
     29 N4           6.7560   -11.6380    14.1400 nv         1 KMK      -1.056900
     30 N3           8.9170   -11.1280    14.5700 nb         1 KMK      -0.362000
     31 N2          11.0670   -10.5790    15.0260 nv         1 KMK      -1.064900
     32 N1          10.6420   -12.7940    14.6770 nb         1 KMK      -0.278000
     33 C8A          9.7690   -13.7870    14.3960 ca         1 KMK       0.117000
     34 N8          10.1750   -15.0770    14.3260 nb         1 KMK      -0.110000
     35 H1           9.6140   -17.0520    14.0080 h4         1 KMK       0.026100
     36 H2          16.6920   -20.3310    21.3150 h1         1 KMK       0.048367
     37 H3          16.0490   -21.8900    20.7590 h1         1 KMK       0.048367
     38 H4          16.4440   -20.6150    19.5800 h1         1 KMK       0.048367
     39 H5          12.4880   -19.4340    20.8750 hc         1 KMK       0.073700
     40 H6          11.7460   -19.9610    17.9690 hc         1 KMK       0.061700
     41 H7          12.5800   -18.5400    18.5950 hc         1 KMK       0.061700
     42 H8          10.6250   -17.9000    19.9440 h1         1 KMK       0.054200
     43 H9          10.1340   -18.1210    18.2710 h1         1 KMK       0.054200
     44 H10         11.1400   -21.9430    19.8050 hc         1 KMK       0.061700
     45 H11         11.6160   -21.6430    21.4740 hc         1 KMK       0.061700
     46 H12         10.0100   -19.7930    21.6820 h1         1 KMK       0.054200
     47 H13          9.1690   -21.2140    21.0430 h1         1 KMK       0.054200
     48 H14          8.9560   -19.7390    17.0030 ha         1 KMK       0.120500
     49 H15          8.0310   -18.8450    14.9200 ha         1 KMK       0.112500
     50 H16          5.9500   -17.5870    19.2540 ha         1 KMK       0.120500
     51 H17          5.0320   -16.6930    17.1630 ha         1 KMK       0.112500
     52 H18          3.9210   -17.2610    15.3110 h1         1 KMK       0.050700
     53 H19          4.1510   -17.4080    13.5830 h1         1 KMK       0.050700
     54 H20          4.6730   -14.9770    13.4010 hc         1 KMK       0.061200
     55 H21          3.0790   -15.2900    14.0630 hc         1 KMK       0.061200
     56 H22          3.8290   -14.7860    16.3400 h1         1 KMK       0.031200
     57 H23          5.5140   -14.6280    15.8080 h1         1 KMK       0.031200
     58 H24          4.0470   -12.6400    16.0190 ho         1 KMK       0.444000
     59 H25          6.2780   -16.4650    12.6580 h1         1 KMK       0.056200
     60 H26          7.3910   -17.6990    13.1730 h1         1 KMK       0.056200
     61 H27          6.5470   -10.7190    14.5130 hn         1 KMK       0.517000
     62 H28          6.0180   -12.3370    14.2520 hn         1 KMK       0.517000
     63 H29         12.0540   -10.8040    14.9260 hn         1 KMK       0.505500
     64 H30         10.8030    -9.6130    14.8490 hn         1 KMK       0.505500
     65 CBB          8.0910   -19.2460    19.5970 c          1 KMK       0.630700
     66 CBD         13.7360   -20.7760    19.8430 c          1 KMK       0.592100
@<TRIPOS>BOND
     1     1    30 ar  
     2     1    31 1   
     3     1    32 ar  
     4     2     4 ar  
     5     2    34 ar  
     6     2    35 1   
     7     3    28 ar  
     8     3    29 1   
     9     3    30 ar  
    10     4    26 1   
    11     4    27 ar  
    12     5     6 1   
    13     5    36 1   
    14     5    37 1   
    15     5    38 1   
    16     6    66 1   
    17     7    66 2   
    18     8     9 1   
    19     8    11 1   
    20     8    39 1   
    21     8    66 1   
    22     9    10 1   
    23     9    40 1   
    24     9    41 1   
    25    10    13 1   
    26    10    42 1   
    27    10    43 1   
    28    11    12 1   
    29    11    44 1   
    30    11    45 1   
    31    12    13 1   
    32    12    46 1   
    33    12    47 1   
    34    13    65 1   
    35    14    65 2   
    36    15    16 ar  
    37    15    18 ar  
    38    15    65 1   
    39    16    17 ar  
    40    16    48 1   
    41    17    20 ar  
    42    17    49 1   
    43    18    19 ar  
    44    18    50 1   
    45    19    20 ar  
    46    19    51 1   
    47    20    21 1   
    48    21    22 1   
    49    21    26 1   
    50    22    23 1   
    51    22    52 1   
    52    22    53 1   
    53    23    24 1   
    54    23    54 1   
    55    23    55 1   
    56    24    25 1   
    57    24    56 1   
    58    24    57 1   
    59    25    58 1   
    60    26    59 1   
    61    26    60 1   
    62    27    28 ar  
    63    28    33 ar  
    64    29    61 1   
    65    29    62 1   
    66    31    63 1   
    67    31    64 1   
    68    32    33 ar  
    69    33    34 ar  
@<TRIPOS>SUBSTRUCTURE
     1 KMK         1 TEMP              0 ****  ****    0 ROOT
