@<TRIPOS>MOLECULE
KMK
   66    69     1     0     0
SMALL
abcg2


@<TRIPOS>ATOM
      1 C2          10.6390   -12.1880    14.5930 ca         1 KMK       0.452900
      2 C7           9.2110   -16.2700    13.2760 ca         1 KMK       0.091900
      3 C4           8.4060   -12.6040    14.8540 ca         1 KMK       0.467900
      4 C6           7.8940   -15.9730    13.6790 ca         1 KMK       0.215300
      5 CBG         15.4940   -20.9300    20.2920 c3         1 KMK       0.151900
      6 OBE         14.1940   -20.4140    20.5800 os         1 KMK      -0.445100
      7 OBF         14.0290   -19.6020    18.5110 o          1 KMK      -0.483000
      8 CAZ         12.1880   -19.3180    20.0480 c6         1 KMK      -0.119700
      9 CBA         11.4940   -18.4880    18.9740 c6         1 KMK      -0.081900
     10 CAV         10.0990   -18.0950    19.4310 c6         1 KMK       0.096500
     11 CAY         11.3060   -20.5060    20.4530 c6         1 KMK      -0.081900
     12 CAX          9.9110   -20.0440    20.8510 c6         1 KMK       0.096500
     13 NAW          9.3120   -19.2660    19.7810 n          1 KMK      -0.413800
     14 OBC          7.2800   -20.2210    20.0530 o          1 KMK      -0.604100
     15 CAU          7.5290   -18.8220    18.1810 ca         1 KMK      -0.207600
     16 CAT          8.2590   -18.8010    16.9960 ca         1 KMK      -0.024000
     17 CAO          7.7390   -18.2660    15.8340 ca         1 KMK      -0.207000
     18 CAQ          6.2370   -18.3020    18.1470 ca         1 KMK      -0.024000
     19 CAR          5.7110   -17.7410    17.0010 ca         1 KMK      -0.207000
     20 CAS          6.4460   -17.7060    15.7990 ca         1 KMK       0.369000
     21 N10          5.9420   -17.1640    14.6490 nh         1 KMK      -0.827400
     22 CAP          4.5410   -16.8240    14.4790 c3         1 KMK       0.236800
     23 CBH          4.2570   -15.3270    14.5020 c3         1 KMK      -0.103400
     24 CBI          4.5300   -14.6860    15.8460 c3         1 KMK       0.160600
     25 OBJ          4.3830   -13.2830    15.7100 oh         1 KMK      -0.679000
     26 C9           6.7900   -16.9870    13.4950 c3         1 KMK       0.195500
     27 N5           7.6210   -14.7940    14.1900 nb         1 KMK      -0.587000
     28 C4A          8.6230   -13.9270    14.3100 ca         1 KMK       0.031000
     29 N4           7.1900   -12.2170    15.2140 nv         1 KMK      -1.056900
     30 N3           9.4160   -11.7730    14.9890 nb         1 KMK      -0.362000
     31 N2          11.6300   -11.3050    14.7800 nv         1 KMK      -1.064900
     32 N1          10.9550   -13.3580    14.0590 nb         1 KMK      -0.278000
     33 C8A          9.9440   -14.2250    13.9210 ca         1 KMK       0.117000
     34 N8          10.2110   -15.4340    13.3880 nb         1 KMK      -0.110000
     35 H1           9.4320   -17.2440    12.8490 h4         1 KMK       0.026100
     36 H2          15.8290   -21.4200    21.2010 h1         1 KMK       0.048367
     37 H3          15.4640   -21.6560    19.4800 h1         1 KMK       0.048367
     38 H4          16.1910   -20.1330    20.0340 h1         1 KMK       0.048367
     39 H5          12.3300   -18.6900    20.9370 hc         1 KMK       0.073700
     40 H6          11.4280   -19.0540    18.0410 hc         1 KMK       0.061700
     41 H7          12.0620   -17.5810    18.7590 hc         1 KMK       0.061700
     42 H8          10.1730   -17.4560    20.3200 h1         1 KMK       0.054200
     43 H9           9.5960   -17.5070    18.6680 h1         1 KMK       0.054200
     44 H10         11.2250   -21.2090    19.6190 hc         1 KMK       0.061700
     45 H11         11.7450   -21.0460    21.2930 hc         1 KMK       0.061700
     46 H12          9.9660   -19.4350    21.7630 h1         1 KMK       0.054200
     47 H13          9.2840   -20.9030    21.0740 h1         1 KMK       0.054200
     48 H14          9.2500   -19.2380    16.9580 ha         1 KMK       0.120500
     49 H15          8.3490   -18.3110    14.9440 ha         1 KMK       0.112500
     50 H16          5.6280   -18.3120    19.0430 ha         1 KMK       0.120500
     51 H17          4.7160   -17.3220    17.0570 ha         1 KMK       0.112500
     52 H18          3.9450   -17.3400    15.2300 h1         1 KMK       0.050700
     53 H19          4.2100   -17.2270    13.5190 h1         1 KMK       0.050700
     54 H20          4.8660   -14.8360    13.7370 hc         1 KMK       0.061200
     55 H21          3.2110   -15.1730    14.2230 hc         1 KMK       0.061200
     56 H22          3.8310   -15.0810    16.5930 h1         1 KMK       0.031200
     57 H23          5.5440   -14.9350    16.1810 h1         1 KMK       0.031200
     58 H24          4.4380   -12.8890    16.5860 ho         1 KMK       0.444000
     59 H25          6.1590   -16.6600    12.6670 h1         1 KMK       0.056200
     60 H26          7.2290   -17.9370    13.1700 h1         1 KMK       0.056200
     61 H27          7.0620   -11.2950    15.5960 hn         1 KMK       0.517000
     62 H28          6.3730   -12.8030    15.1170 hn         1 KMK       0.517000
     63 H29         12.5490   -11.4970    14.4220 hn         1 KMK       0.505500
     64 H30         11.4240   -10.3740    15.0960 hn         1 KMK       0.505500
     65 CBB          8.0240   -19.4800    19.4180 c          1 KMK       0.630700
     66 CBD         13.5570   -19.7770    19.6070 c          1 KMK       0.592100
@<TRIPOS>BOND
     1     1    30 ar  
     2     1    31 1   
     3     1    32 ar  
     4     2     4 ar  
     5     2    34 ar  
     6     2    35 1   
     7     3    28 ar  
     8     3    29 1   
     9     3    30 ar  
    10     4    26 1   
    11     4    27 ar  
    12     5     6 1   
    13     5    36 1   
    14     5    37 1   
    15     5    38 1   
    16     6    66 1   
    17     7    66 2   
    18     8     9 1   
    19     8    11 1   
    20     8    39 1   
    21     8    66 1   
    22     9    10 1   
    23     9    40 1   
    24     9    41 1   
    25    10    13 1   
    26    10    42 1   
    27    10    43 1   
    28    11    12 1   
    29    11    44 1   
    30    11    45 1   
    31    12    13 1   
    32    12    46 1   
    33    12    47 1   
    34    13    65 1   
    35    14    65 2   
    36    15    16 ar  
    37    15    18 ar  
    38    15    65 1   
    39    16    17 ar  
    40    16    48 1   
    41    17    20 ar  
    42    17    49 1   
    43    18    19 ar  
    44    18    50 1   
    45    19    20 ar  
    46    19    51 1   
    47    20    21 1   
    48    21    22 1   
    49    21    26 1   
    50    22    23 1   
    51    22    52 1   
    52    22    53 1   
    53    23    24 1   
    54    23    54 1   
    55    23    55 1   
    56    24    25 1   
    57    24    56 1   
    58    24    57 1   
    59    25    58 1   
    60    26    59 1   
    61    26    60 1   
    62    27    28 ar  
    63    28    33 ar  
    64    29    61 1   
    65    29    62 1   
    66    31    63 1   
    67    31    64 1   
    68    32    33 ar  
    69    33    34 ar  
@<TRIPOS>SUBSTRUCTURE
     1 KMK         1 TEMP              0 ****  ****    0 ROOT
