@<TRIPOS>MOLECULE
KML
   31    33     1     0     0
SMALL
No Charge or Current Charge


@<TRIPOS>ATOM
      1 C1          26.1770    32.6500    78.5420 ca         1 KML      -0.423600
      2 C2          26.5820    32.4150    77.2170 ca         1 KML       0.265100
      3 C3          28.3470    30.9200    77.9600 c6         1 KML       0.231600
      4 C4          29.1330    29.7240    77.4130 ca         1 KML      -0.096300
      5 O1          27.5020    31.4380    76.9160 os         1 KML      -0.334100
      6 C           26.7250    31.7840    79.6260 c          1 KML       0.615700
      7 C10         27.4990    30.5590    79.1850 c6         1 KML      -0.207400
      8 C9          28.4650    28.6420    76.8010 ca         1 KML      -0.086000
      9 C8          29.1940    27.5460    76.3050 ca         1 KML      -0.112000
     10 C7          30.5940    27.5230    76.4170 ca         1 KML      -0.097000
     11 C6          31.2660    28.5970    77.0240 ca         1 KML      -0.112000
     12 C5          30.5390    29.6940    77.5200 ca         1 KML      -0.086000
     13 C11         26.0470    33.1700    76.1700 ca         1 KML      -0.250000
     14 C12         25.1240    34.1820    76.4400 ca         1 KML       0.251100
     15 C13         24.7340    34.4410    77.7560 ca         1 KML      -0.322000
     16 C14         25.2580    33.6780    78.8010 ca         1 KML       0.296100
     17 H1          29.0540    31.7140    78.2450 h1         1 KML       0.059700
     18 H2          23.9920    35.5720    75.8040 ho         1 KML       0.476000
     19 H3          25.3960    33.3440    80.6440 ho         1 KML       0.519000
     20 H4          26.7590    29.8210    78.8530 hc         1 KML       0.089700
     21 H5          28.0800    30.1430    80.0170 hc         1 KML       0.089700
     22 H6          27.3820    28.6510    76.7060 ha         1 KML       0.117500
     23 H7          28.6720    26.7160    75.8340 ha         1 KML       0.116500
     24 H8          31.1570    26.6750    76.0330 ha         1 KML       0.115000
     25 H9          32.3500    28.5800    77.1110 ha         1 KML       0.116500
     26 H10         31.0700    30.5190    77.9900 ha         1 KML       0.117500
     27 H11         26.3570    32.9740    75.1490 ha         1 KML       0.150000
     28 H12         24.0200    35.2300    77.9770 ha         1 KML       0.136000
     29 O2          24.6130    34.9180    75.4200 oh         1 KML      -0.521100
     30 O3          24.8610    33.9460    80.0680 oh         1 KML      -0.539100
     31 O           26.5880    32.0700    80.8090 o          1 KML      -0.578100
@<TRIPOS>BOND
     1     1     2 ar  
     2     1     6 1   
     3     1    16 ar  
     4     2     5 1   
     5     2    13 ar  
     6     3     4 1   
     7     3     5 1   
     8     3     7 1   
     9     3    17 1   
    10     4     8 ar  
    11     4    12 ar  
    12     6     7 1   
    13     6    31 2   
    14     7    20 1   
    15     7    21 1   
    16     8     9 ar  
    17     8    22 1   
    18     9    10 ar  
    19     9    23 1   
    20    10    11 ar  
    21    10    24 1   
    22    11    12 ar  
    23    11    25 1   
    24    12    26 1   
    25    13    14 ar  
    26    13    27 1   
    27    14    15 ar  
    28    14    29 1   
    29    15    16 ar  
    30    15    28 1   
    31    16    30 1   
    32    18    29 1   
    33    19    30 1   
@<TRIPOS>SUBSTRUCTURE
     1 KML         1 TEMP              0 ****  ****    0 ROOT
