@<TRIPOS>MOLECULE
KML
   31    33     1     0     0
SMALL
bcc


@<TRIPOS>ATOM
      1 C1          26.2330    32.6210    78.5510 ca         1 KML      -0.423600
      2 C2          26.5850    32.3720    77.2080 ca         1 KML       0.265100
      3 C3          28.3350    30.9470    77.9050 c6         1 KML       0.208400
      4 C4          29.1010    29.7720    77.3670 ca         1 KML      -0.096300
      5 O1          27.4510    31.4030    76.8820 os         1 KML      -0.310900
      6 C           26.7140    31.7620    79.6060 c          1 KML       0.615700
      7 C10         27.5590    30.6010    79.1650 c6         1 KML      -0.207400
      8 C9          28.4450    28.7190    76.7320 ca         1 KML      -0.104000
      9 C8          29.1630    27.6220    76.2790 ca         1 KML      -0.130000
     10 C7          30.5390    27.5610    76.4620 ca         1 KML      -0.115000
     11 C6          31.1960    28.6050    77.0970 ca         1 KML      -0.130000
     12 C5          30.4780    29.7080    77.5420 ca         1 KML      -0.104000
     13 C11         26.0470    33.1110    76.1740 ca         1 KML      -0.268000
     14 C12         25.1420    34.1300    76.4770 ca         1 KML       0.251100
     15 C13         24.7810    34.4210    77.7910 ca         1 KML      -0.340000
     16 C14         25.3200    33.6690    78.8230 ca         1 KML       0.296100
     17 H1          29.0370    31.7590    78.1360 h1         1 KML       0.059700
     18 H2          24.0520    35.5140    75.7430 ho         1 KML       0.437000
     19 H3          25.4020    33.2970    80.6630 ho         1 KML       0.480000
     20 H4          26.8950    29.7480    78.9820 hc         1 KML       0.089700
     21 H5          28.2470    30.3110    79.9610 hc         1 KML       0.089700
     22 H6          27.3720    28.7500    76.5860 ha         1 KML       0.135500
     23 H7          28.6460    26.8110    75.7830 ha         1 KML       0.134500
     24 H8          31.0960    26.7030    76.1090 ha         1 KML       0.133000
     25 H9          32.2680    28.5670    77.2400 ha         1 KML       0.134500
     26 H10         30.9960    30.5260    78.0280 ha         1 KML       0.135500
     27 H11         26.3320    32.9140    75.1490 ha         1 KML       0.168000
     28 H12         24.0810    35.2180    78.0130 ha         1 KML       0.154000
     29 O2          24.6510    34.8180    75.4430 oh         1 KML      -0.482100
     30 O3          24.9520    33.9420    80.0680 oh         1 KML      -0.500100
     31 O           26.4200    31.9340    80.7880 o          1 KML      -0.578100
@<TRIPOS>BOND
     1     1     2 ar  
     2     1     6 1   
     3     1    16 ar  
     4     2     5 1   
     5     2    13 ar  
     6     3     4 1   
     7     3     5 1   
     8     3     7 1   
     9     3    17 1   
    10     4     8 ar  
    11     4    12 ar  
    12     6     7 1   
    13     6    31 2   
    14     7    20 1   
    15     7    21 1   
    16     8     9 ar  
    17     8    22 1   
    18     9    10 ar  
    19     9    23 1   
    20    10    11 ar  
    21    10    24 1   
    22    11    12 ar  
    23    11    25 1   
    24    12    26 1   
    25    13    14 ar  
    26    13    27 1   
    27    14    15 ar  
    28    14    29 1   
    29    15    16 ar  
    30    15    28 1   
    31    16    30 1   
    32    18    29 1   
    33    19    30 1   
@<TRIPOS>SUBSTRUCTURE
     1 KML         1 TEMP              0 ****  ****    0 ROOT
