@<TRIPOS>MOLECULE
KMM
   49    50     1     0     0
SMALL
No Charge or Current Charge


@<TRIPOS>ATOM
      1 C11         -0.0260    -1.0780     0.2570 ca         1 KMM      -0.130300
      2 C13          2.2830    -0.8830    -0.5730 ca         1 KMM      -0.103300
      3 C14          2.4740    -2.2620    -0.3540 ca         1 KMM      -0.108000
      4 C17          3.4290    -0.0440    -1.1310 c3         1 KMM      -0.026100
      5 C18          4.2190     0.6740    -0.0160 c3         1 KMM      -0.076400
      6 C02         -5.8420     0.0330     0.2310 ca         1 KMM       0.600900
      7 C04         -4.9970     2.2600    -0.0950 ca         1 KMM       0.001700
      8 C06         -3.6470     0.2560    -0.3450 ca         1 KMM       0.396300
      9 C08         -2.3180    -0.4220    -0.6420 c3         1 KMM      -0.121700
     10 C09         -1.3770    -0.4360     0.5810 c3         1 KMM      -0.022100
     11 C19          5.3930     1.5210    -0.5610 c3         1 KMM       0.165800
     12 C21          6.7380     1.5540     1.5320 c3         1 KMM       0.149600
     13 C03         -6.0680     1.4110     0.2200 ca         1 KMM      -0.231000
     14 C05         -3.7610     1.6590    -0.3810 ca         1 KMM      -0.213000
     15 C12          1.0320    -0.3000    -0.2660 ca         1 KMM       0.179000
     16 C15          1.4280    -3.0440     0.1590 ca         1 KMM       0.118000
     17 C16          0.1850    -2.4590     0.4620 ca         1 KMM       0.157000
     18 C22          7.0380     3.3030    -0.1610 c3         1 KMM       0.149600
     19 F12          0.8460     1.0240    -0.4780 f          1 KMM      -0.171000
     20 F15          1.6260    -4.3670     0.3600 f          1 KMM      -0.160000
     21 F16         -0.8140    -3.2340     0.9490 f          1 KMM      -0.152000
     22 N01         -4.6860    -0.5530    -0.0400 nb         1 KMM      -0.752000
     23 N02         -6.7870    -0.8670     0.5080 nv         1 KMM      -1.055900
     24 N20          6.0930     2.3450     0.4560 n3         1 KMM      -0.710600
     25 H1           3.4290    -2.7290    -0.5800 ha         1 KMM       0.137000
     26 H2           4.1170    -0.6770    -1.7050 hc         1 KMM       0.053700
     27 H3           3.0450     0.7010    -1.8410 hc         1 KMM       0.053700
     28 H4           3.5390     1.3240     0.5470 hc         1 KMM       0.053700
     29 H5           4.5980    -0.0810     0.6820 hc         1 KMM       0.053700
     30 H6          -4.9170     4.2060     0.8560 hc         1 KMM       0.046700
     31 H7          -4.5110     4.2320    -0.8690 hc         1 KMM       0.046700
     32 H8          -6.1960     4.0540    -0.3620 hc         1 KMM       0.046700
     33 H9          -2.4810    -1.4520    -0.9820 hc         1 KMM       0.057200
     34 H10         -1.8220     0.0970    -1.4710 hc         1 KMM       0.057200
     35 H11         -1.8700    -0.9640     1.4060 hc         1 KMM       0.072200
     36 H12         -1.2360     0.5920     0.9400 hc         1 KMM       0.072200
     37 H13          6.1090     0.8510    -1.0570 h1         1 KMM       0.028700
     38 H14          4.9860     2.1830    -1.3370 h1         1 KMM       0.028700
     39 H15          7.2460     2.2150     2.2470 h1         1 KMM       0.030200
     40 H16          5.9990     0.9700     2.0950 h1         1 KMM       0.030200
     41 H17          7.4840     0.8620     1.1170 h1         1 KMM       0.030200
     42 H18         -7.0500     1.8110     0.4550 ha         1 KMM       0.119000
     43 H19         -2.8950     2.2670    -0.6260 ha         1 KMM       0.122000
     44 H20          6.5230     3.9400    -0.8930 h1         1 KMM       0.030200
     45 H21          7.4820     3.9580     0.6000 h1         1 KMM       0.030200
     46 H22          7.8510     2.7740    -0.6770 h1         1 KMM       0.030200
     47 H23         -7.7520    -0.5820     0.3890 hn         1 KMM       0.469000
     48 H24         -6.5590    -1.8210     0.2560 hn         1 KMM       0.469000
     49 C07         -5.1650     3.7700    -0.1190 c3         1 KMM      -0.053800
@<TRIPOS>BOND
     1     1    10 1   
     2     1    15 ar  
     3     1    17 ar  
     4     2     3 ar  
     5     2     4 1   
     6     2    15 ar  
     7     3    16 ar  
     8     3    25 1   
     9     4     5 1   
    10     4    26 1   
    11     4    27 1   
    12     5    11 1   
    13     5    28 1   
    14     5    29 1   
    15     6    13 ar  
    16     6    22 ar  
    17     6    23 1   
    18     7    13 ar  
    19     7    14 ar  
    20     7    49 1   
    21     8     9 1   
    22     8    14 ar  
    23     8    22 ar  
    24     9    10 1   
    25     9    33 1   
    26     9    34 1   
    27    10    35 1   
    28    10    36 1   
    29    11    24 1   
    30    11    37 1   
    31    11    38 1   
    32    12    24 1   
    33    12    39 1   
    34    12    40 1   
    35    12    41 1   
    36    13    42 1   
    37    14    43 1   
    38    15    19 1   
    39    16    17 ar  
    40    16    20 1   
    41    17    21 1   
    42    18    24 1   
    43    18    44 1   
    44    18    45 1   
    45    18    46 1   
    46    23    47 1   
    47    23    48 1   
    48    30    49 1   
    49    31    49 1   
    50    32    49 1   
@<TRIPOS>SUBSTRUCTURE
     1 KMM         1 TEMP              0 ****  ****    0 ROOT
