@<TRIPOS>MOLECULE
KMM
   49    50     1     0     0
SMALL
abcg2


@<TRIPOS>ATOM
      1 C11         -0.0060    -0.9670     0.0690 ca         1 KMM      -0.130300
      2 C13          2.3010    -0.7390    -0.7420 ca         1 KMM      -0.103300
      3 C14          2.4330    -2.1240    -0.7020 ca         1 KMM      -0.108000
      4 C17          3.4530     0.1380    -1.1380 c3         1 KMM      -0.026100
      5 C18          4.2080     0.6810     0.0780 c3         1 KMM      -0.076400
      6 C02         -5.4990     0.1210     0.8340 ca         1 KMM       0.600900
      7 C04         -5.2140     2.1440    -0.4270 ca         1 KMM       0.001700
      8 C06         -3.5720     0.3970    -0.3730 ca         1 KMM       0.396300
      9 C08         -2.2450    -0.1870    -0.7650 c3         1 KMM      -0.121700
     10 C09         -1.3190    -0.3450     0.4490 c3         1 KMM      -0.022100
     11 C19          5.4000     1.5250    -0.3490 c3         1 KMM       0.165800
     12 C21          6.7400     1.2050     1.6290 c3         1 KMM       0.149600
     13 C03         -5.9860     1.3720     0.4150 ca         1 KMM      -0.231000
     14 C05         -3.9710     1.6400    -0.8290 ca         1 KMM      -0.213000
     15 C12          1.0790    -0.2110    -0.3560 ca         1 KMM       0.179000
     16 C15          1.3790    -2.9110    -0.2930 ca         1 KMM       0.118000
     17 C16          0.1780    -2.3400     0.0840 ca         1 KMM       0.157000
     18 C22          7.0500     3.1300     0.2650 c3         1 KMM       0.149600
     19 F12          0.9260     1.1250    -0.3930 f          1 KMM      -0.171000
     20 F15          1.5040    -4.2440    -0.2550 f          1 KMM      -0.160000
     21 F16         -0.8230    -3.1390     0.4670 f          1 KMM      -0.152000
     22 N01         -4.3210    -0.3500     0.4410 nb         1 KMM      -0.752000
     23 N02         -6.2160    -0.6460     1.7070 nv         1 KMM      -1.055900
     24 N20          6.0940     2.1610     0.7550 n3         1 KMM      -0.710600
     25 H1           3.3640    -2.5910    -0.9980 ha         1 KMM       0.137000
     26 H2           4.1400    -0.4420    -1.7570 hc         1 KMM       0.053700
     27 H3           3.1060     0.9690    -1.7570 hc         1 KMM       0.053700
     28 H4           3.5390     1.2860     0.6960 hc         1 KMM       0.053700
     29 H5           4.5290    -0.1630     0.6930 hc         1 KMM       0.053700
     30 H6          -5.1150     4.2830    -0.3940 hc         1 KMM       0.046700
     31 H7          -5.5160     3.6120    -1.9640 hc         1 KMM       0.046700
     32 H8          -6.7330     3.6490    -0.6840 hc         1 KMM       0.046700
     33 H9          -2.4040    -1.1660    -1.2250 hc         1 KMM       0.057200
     34 H10         -1.7680     0.4460    -1.5150 hc         1 KMM       0.057200
     35 H11         -1.8180    -0.9570     1.2000 hc         1 KMM       0.072200
     36 H12         -1.1480     0.6290     0.9070 hc         1 KMM       0.072200
     37 H13          6.0870     0.9050    -0.9540 h1         1 KMM       0.028700
     38 H14          5.0400     2.3180    -1.0130 h1         1 KMM       0.028700
     39 H15          7.2820     1.7330     2.4140 h1         1 KMM       0.030200
     40 H16          6.0110     0.5610     2.1200 h1         1 KMM       0.030200
     41 H17          7.4600     0.5560     1.1030 h1         1 KMM       0.030200
     42 H18         -6.9570     1.7160     0.7510 ha         1 KMM       0.119000
     43 H19         -3.3330     2.2090    -1.4940 ha         1 KMM       0.122000
     44 H20          6.5450     3.8810    -0.3440 h1         1 KMM       0.030200
     45 H21          7.5270     3.6430     1.1020 h1         1 KMM       0.030200
     46 H22          7.8480     2.6840    -0.3510 h1         1 KMM       0.030200
     47 H23         -7.2050    -0.4740     1.7750 hn         1 KMM       0.469000
     48 H24         -5.9630    -1.6200     1.7540 hn         1 KMM       0.469000
     49 C07         -5.6760     3.4910    -0.8930 c3         1 KMM      -0.053800
@<TRIPOS>BOND
     1     1    10 1   
     2     1    15 ar  
     3     1    17 ar  
     4     2     3 ar  
     5     2     4 1   
     6     2    15 ar  
     7     3    16 ar  
     8     3    25 1   
     9     4     5 1   
    10     4    26 1   
    11     4    27 1   
    12     5    11 1   
    13     5    28 1   
    14     5    29 1   
    15     6    13 ar  
    16     6    22 ar  
    17     6    23 1   
    18     7    13 ar  
    19     7    14 ar  
    20     7    49 1   
    21     8     9 1   
    22     8    14 ar  
    23     8    22 ar  
    24     9    10 1   
    25     9    33 1   
    26     9    34 1   
    27    10    35 1   
    28    10    36 1   
    29    11    24 1   
    30    11    37 1   
    31    11    38 1   
    32    12    24 1   
    33    12    39 1   
    34    12    40 1   
    35    12    41 1   
    36    13    42 1   
    37    14    43 1   
    38    15    19 1   
    39    16    17 ar  
    40    16    20 1   
    41    17    21 1   
    42    18    24 1   
    43    18    44 1   
    44    18    45 1   
    45    18    46 1   
    46    23    47 1   
    47    23    48 1   
    48    30    49 1   
    49    31    49 1   
    50    32    49 1   
@<TRIPOS>SUBSTRUCTURE
     1 KMM         1 TEMP              0 ****  ****    0 ROOT
