@<TRIPOS>MOLECULE
KMN
   63    65     1     0     0
SMALL
No Charge or Current Charge


@<TRIPOS>ATOM
      1 C           -0.8120    -6.5500     1.5540 c1         1 KMN      -0.226000
      2 O            4.9820     0.6120     0.0100 os         1 KMN      -0.339100
      3 C01          1.3500    -2.4410    -0.0330 ca         1 KMN      -0.025000
      4 C1          -0.9020    -2.3070    -0.9760 ca         1 KMN      -0.129300
      5 N1          -2.8430    -0.6890    -1.0290 n3         1 KMN      -0.703600
      6 C02          1.0280    -3.6670     0.5710 ca         1 KMN      -0.017000
      7 C2          -1.9240    -1.5450    -1.8210 c3         1 KMN       0.227100
      8 N2          -5.2970     2.5330     0.6850 n3         1 KMN      -0.729600
      9 C03         -3.9260    -0.1210    -1.8660 c6         1 KMN       0.164800
     10 C3           0.3890    -1.7670    -0.8060 ca         1 KMN      -0.038000
     11 C04          2.6570    -1.8750     0.1390 cg         1 KMN      -0.073000
     12 C4          -0.2530    -4.2260     0.4030 ca         1 KMN      -0.087000
     13 C05          3.7600    -1.3870     0.2820 c1         1 KMN      -0.141100
     14 C06          5.0740    -0.7550     0.4480 c3         1 KMN       0.257700
     15 C07          6.0630     1.4680     0.0450 ca         1 KMN       0.140100
     16 C7          -1.2200    -3.5450    -0.3740 ca         1 KMN       0.202100
     17 C08          5.8700     2.7850    -0.4060 ca         1 KMN      -0.170500
     18 C8          -4.9600     0.6560    -1.0200 c6         1 KMN      -0.077400
     19 C09          6.9330     3.7050    -0.3950 ca         1 KMN      -0.074000
     20 C10         -4.3000     1.8020    -0.1930 c6         1 KMN       0.192500
     21 C11         -4.6780     3.5880     1.5500 c3         1 KMN       0.171800
     22 C12         -5.6320     4.2850     2.5440 c3         1 KMN      -0.109600
     23 C13         -6.5190     3.0140    -0.0360 c3         1 KMN       0.171800
     24 C14         -6.2680     4.0830    -1.1240 c3         1 KMN      -0.109600
     25 C15         -3.1210     1.1850     0.6200 c6         1 KMN      -0.077400
     26 C16         -2.1470     0.3840    -0.2730 c6         1 KMN       0.164800
     27 C17          8.1980     3.3070     0.0690 ca         1 KMN      -0.146000
     28 C18          8.4000     1.9920     0.5220 ca         1 KMN      -0.074000
     29 C19          7.3360     1.0710     0.5110 ca         1 KMN      -0.170500
     30 C20         -0.5510    -5.4860     1.0290 cg         1 KMN      -0.136000
     31 H           -1.0330    -7.4900     2.0210 ha         1 KMN       0.261000
     32 H061         5.8130    -1.3070    -0.1470 h1         1 KMN       0.051700
     33 H062         5.3630    -0.8070     1.5050 h1         1 KMN       0.051700
     34 H02          1.7730    -4.1880     1.1700 ha         1 KMN       0.127000
     35 H3           0.6430    -0.8160    -1.2720 ha         1 KMN       0.125000
     36 H21C        -1.3860    -0.9300    -2.5560 h1         1 KMN       0.039200
     37 H22C        -2.5050    -2.2740    -2.4010 h1         1 KMN       0.039200
     38 H031        -3.5050     0.5540    -2.6260 h1         1 KMN       0.030200
     39 H032        -4.4500    -0.9250    -2.4030 h1         1 KMN       0.030200
     40 H161        -1.3680    -0.0420     0.3750 h1         1 KMN       0.030200
     41 H162        -1.6470     1.0750    -0.9690 h1         1 KMN       0.030200
     42 H1          -2.4700    -4.9370    -0.0350 ho         1 KMN       0.476000
     43 H10         -3.8620     2.5160    -0.9060 h1         1 KMN       0.017700
     44 H111        -3.8940     3.1450     2.1750 h1         1 KMN       0.038200
     45 H112        -4.1940     4.3550     0.9300 h1         1 KMN       0.038200
     46 H131        -7.0500     2.1720    -0.4950 h1         1 KMN       0.038200
     47 H132        -7.2410     3.4260     0.6800 h1         1 KMN       0.038200
     48 H81C        -5.7090     1.0530    -1.7150 hc         1 KMN       0.053700
     49 H82C        -5.4810    -0.0390    -0.3490 hc         1 KMN       0.053700
     50 H08          4.8910     3.0930    -0.7650 ha         1 KMN       0.121500
     51 H19          7.5200     0.0610     0.8660 ha         1 KMN       0.121500
     52 H09          6.7760     4.7230    -0.7450 ha         1 KMN       0.112500
     53 H17          9.0210     4.0170     0.0790 ha         1 KMN       0.115000
     54 H151        -2.5310     1.9660     1.1130 hc         1 KMN       0.053700
     55 H152        -3.5130     0.5330     1.4120 hc         1 KMN       0.053700
     56 H121        -6.3380     4.9460     2.0270 hc         1 KMN       0.035200
     57 H122        -6.1960     3.5460     3.1250 hc         1 KMN       0.035200
     58 H123        -5.0560     4.9010     3.2440 hc         1 KMN       0.035200
     59 H141        -5.8060     4.9810    -0.6990 hc         1 KMN       0.035200
     60 H142        -5.6180     3.6970    -1.9180 hc         1 KMN       0.035200
     61 H143        -7.2180     4.3780    -1.5820 hc         1 KMN       0.035200
     62 H18          9.3800     1.6860     0.8810 ha         1 KMN       0.112500
     63 O1          -2.4590    -4.0990    -0.5450 oh         1 KMN      -0.506100
@<TRIPOS>BOND
     1     1    30 3   
     2     1    31 1   
     3     2    14 1   
     4     2    15 1   
     5     3     6 ar  
     6     3    10 ar  
     7     3    11 1   
     8     4     7 1   
     9     4    10 ar  
    10     4    16 ar  
    11     5     7 1   
    12     5     9 1   
    13     5    26 1   
    14     6    12 ar  
    15     6    34 1   
    16     7    36 1   
    17     7    37 1   
    18     8    20 1   
    19     8    21 1   
    20     8    23 1   
    21     9    18 1   
    22     9    38 1   
    23     9    39 1   
    24    10    35 1   
    25    11    13 3   
    26    12    16 ar  
    27    12    30 1   
    28    13    14 1   
    29    14    32 1   
    30    14    33 1   
    31    15    17 ar  
    32    15    29 ar  
    33    16    63 1   
    34    17    19 ar  
    35    17    50 1   
    36    18    20 1   
    37    18    48 1   
    38    18    49 1   
    39    19    27 ar  
    40    19    52 1   
    41    20    25 1   
    42    20    43 1   
    43    21    22 1   
    44    21    44 1   
    45    21    45 1   
    46    22    56 1   
    47    22    57 1   
    48    22    58 1   
    49    23    24 1   
    50    23    46 1   
    51    23    47 1   
    52    24    59 1   
    53    24    60 1   
    54    24    61 1   
    55    25    26 1   
    56    25    54 1   
    57    25    55 1   
    58    26    40 1   
    59    26    41 1   
    60    27    28 ar  
    61    27    53 1   
    62    28    29 ar  
    63    28    62 1   
    64    29    51 1   
    65    42    63 1   
@<TRIPOS>SUBSTRUCTURE
     1 KMN         1 TEMP              0 ****  ****    0 ROOT
