@<TRIPOS>MOLECULE
KMN
   63    65     1     0     0
SMALL
abcg2


@<TRIPOS>ATOM
      1 C           -1.0980    -6.0830     1.5130 c1         1 KMN      -0.226000
      2 O            5.2520     0.5870    -0.1360 os         1 KMN      -0.339100
      3 C01          1.4390    -2.1820    -0.0040 ca         1 KMN      -0.025000
      4 C1          -0.7810    -1.9290    -0.9740 ca         1 KMN      -0.129300
      5 N1          -2.7900    -0.5090    -1.0160 n3         1 KMN      -0.703600
      6 C02          1.0400    -3.3670     0.6010 ca         1 KMN      -0.017000
      7 C2          -1.7480    -1.1350    -1.8070 c3         1 KMN       0.227100
      8 N2          -5.4600     2.3690     0.7270 n3         1 KMN      -0.729600
      9 C03         -3.7770     0.1090    -1.8800 c6         1 KMN       0.164800
     10 C3           0.5140    -1.4830    -0.7870 ca         1 KMN      -0.038000
     11 C04          2.7580    -1.6720     0.1730 cg         1 KMN      -0.073000
     12 C4          -0.2570    -3.8450     0.4240 ca         1 KMN      -0.087000
     13 C05          3.8620    -1.2140     0.3120 c1         1 KMN      -0.141100
     14 C06          5.2010    -0.6770     0.4990 c3         1 KMN       0.257700
     15 C07          6.4090     1.2840    -0.0730 ca         1 KMN       0.140100
     16 C7          -1.1730    -3.1250    -0.3610 ca         1 KMN       0.202100
     17 C08          6.4130     2.5180    -0.7260 ca         1 KMN      -0.170500
     18 C8          -4.9260     0.7260    -1.0960 c6         1 KMN      -0.077400
     19 C09          7.5530     3.3030    -0.7150 ca         1 KMN      -0.074000
     20 C10         -4.4140     1.7770    -0.1120 c6         1 KMN       0.192500
     21 C11         -4.9830     3.5800     1.3820 c3         1 KMN       0.171800
     22 C12         -5.8930     4.0760     2.4930 c3         1 KMN      -0.109600
     23 C13         -6.7530     2.5620     0.0840 c3         1 KMN       0.171800
     24 C14         -6.8220     3.6200    -1.0160 c3         1 KMN      -0.109600
     25 C15         -3.3580     1.0910     0.7570 c6         1 KMN      -0.077400
     26 C16         -2.2570     0.4580    -0.0750 c6         1 KMN       0.164800
     27 C17          8.7020     2.8750    -0.0570 ca         1 KMN      -0.146000
     28 C18          8.6920     1.6490     0.5890 ca         1 KMN      -0.074000
     29 C19          7.5540     0.8470     0.5870 ca         1 KMN      -0.170500
     30 C20         -0.6830    -5.0620     1.0270 cg         1 KMN      -0.136000
     31 H           -1.4490    -6.9900     1.9510 ha         1 KMN       0.261000
     32 H061         5.9410    -1.3640     0.0720 h1         1 KMN       0.051700
     33 H062         5.4170    -0.5920     1.5700 h1         1 KMN       0.051700
     34 H02          1.7310    -3.9280     1.2150 ha         1 KMN       0.127000
     35 H3           0.8160    -0.5550    -1.2580 ha         1 KMN       0.125000
     36 H21C        -1.1760    -0.3880    -2.3840 h1         1 KMN       0.039200
     37 H22C        -2.2260    -1.7890    -2.5420 h1         1 KMN       0.039200
     38 H031        -3.3190     0.8860    -2.5190 h1         1 KMN       0.030200
     39 H032        -4.1780    -0.6510    -2.5550 h1         1 KMN       0.030200
     40 H161        -1.5540    -0.0410     0.5940 h1         1 KMN       0.030200
     41 H162        -1.6850     1.2500    -0.5950 h1         1 KMN       0.030200
     42 H1          -2.5710    -4.3990    -0.1130 ho         1 KMN       0.476000
     43 H10         -3.9060     2.5570    -0.7090 h1         1 KMN       0.017700
     44 H111        -4.0070     3.3710     1.8210 h1         1 KMN       0.038200
     45 H112        -4.8140     4.3940     0.6590 h1         1 KMN       0.038200
     46 H131        -7.0890     1.6040    -0.3140 h1         1 KMN       0.038200
     47 H132        -7.4810     2.8090     0.8600 h1         1 KMN       0.038200
     48 H81C        -5.6230     1.1550    -1.8170 hc         1 KMN       0.053700
     49 H82C        -5.4600    -0.0590    -0.5530 hc         1 KMN       0.053700
     50 H08          5.5200     2.8520    -1.2400 ha         1 KMN       0.121500
     51 H19          7.5860    -0.1040     1.1010 ha         1 KMN       0.121500
     52 H09          7.5430     4.2560    -1.2260 ha         1 KMN       0.112500
     53 H17          9.5910     3.4910    -0.0520 ha         1 KMN       0.115000
     54 H151        -2.8880     1.7890     1.4510 hc         1 KMN       0.053700
     55 H152        -3.8510     0.3220     1.3610 hc         1 KMN       0.053700
     56 H121        -6.8530     4.4390     2.1250 hc         1 KMN       0.035200
     57 H122        -6.0860     3.2860     3.2210 hc         1 KMN       0.035200
     58 H123        -5.4160     4.9040     3.0170 hc         1 KMN       0.035200
     59 H141        -6.6490     4.6260    -0.6320 hc         1 KMN       0.035200
     60 H142        -6.0880     3.4390    -1.8040 hc         1 KMN       0.035200
     61 H143        -7.8100     3.6150    -1.4790 hc         1 KMN       0.035200
     62 H18          9.5760     1.3010     1.1060 ha         1 KMN       0.112500
     63 O1          -2.4210    -3.5550    -0.5600 oh         1 KMN      -0.506100
@<TRIPOS>BOND
     1     1    30 3   
     2     1    31 1   
     3     2    14 1   
     4     2    15 1   
     5     3     6 ar  
     6     3    10 ar  
     7     3    11 1   
     8     4     7 1   
     9     4    10 ar  
    10     4    16 ar  
    11     5     7 1   
    12     5     9 1   
    13     5    26 1   
    14     6    12 ar  
    15     6    34 1   
    16     7    36 1   
    17     7    37 1   
    18     8    20 1   
    19     8    21 1   
    20     8    23 1   
    21     9    18 1   
    22     9    38 1   
    23     9    39 1   
    24    10    35 1   
    25    11    13 3   
    26    12    16 ar  
    27    12    30 1   
    28    13    14 1   
    29    14    32 1   
    30    14    33 1   
    31    15    17 ar  
    32    15    29 ar  
    33    16    63 1   
    34    17    19 ar  
    35    17    50 1   
    36    18    20 1   
    37    18    48 1   
    38    18    49 1   
    39    19    27 ar  
    40    19    52 1   
    41    20    25 1   
    42    20    43 1   
    43    21    22 1   
    44    21    44 1   
    45    21    45 1   
    46    22    56 1   
    47    22    57 1   
    48    22    58 1   
    49    23    24 1   
    50    23    46 1   
    51    23    47 1   
    52    24    59 1   
    53    24    60 1   
    54    24    61 1   
    55    25    26 1   
    56    25    54 1   
    57    25    55 1   
    58    26    40 1   
    59    26    41 1   
    60    27    28 ar  
    61    27    53 1   
    62    28    29 ar  
    63    28    62 1   
    64    29    51 1   
    65    42    63 1   
@<TRIPOS>SUBSTRUCTURE
     1 KMN         1 TEMP              0 ****  ****    0 ROOT
