@<TRIPOS>MOLECULE
KMP
   31    33     1     0     0
SMALL
bcc


@<TRIPOS>ATOM
      1 C1           0.6820     0.1220    -4.1740 ca         1 KMP      -0.331000
      2 C2          -0.5140     0.1180    -3.4840 ca         1 KMP       0.292100
      3 C3          -0.5130     0.1060    -2.0680 ca         1 KMP      -0.380600
      4 C4           0.7170     0.0980    -1.4050 ca         1 KMP       0.249100
      5 C5           1.9250     0.1000    -2.0780 ca         1 KMP      -0.260000
      6 C6           1.8910     0.1130    -3.4690 ca         1 KMP       0.250100
      7 C9          -1.7290     0.0900    -1.3110 c          1 KMP       0.579900
      8 C10         -1.5850     0.0630     0.1290 cc         1 KMP      -0.066100
      9 C11         -0.3560     0.0790     0.7010 cd         1 KMP       0.160900
     10 C14         -0.0500     0.0460     2.1290 ca         1 KMP      -0.096800
     11 C15         -0.8690     0.6730     3.0730 ca         1 KMP      -0.045000
     12 C16         -0.5600     0.6460     4.4180 ca         1 KMP      -0.206500
     13 C17          0.5840    -0.0180     4.8620 ca         1 KMP       0.162100
     14 C18          1.4140    -0.6410     3.9320 ca         1 KMP      -0.206500
     15 C19          1.1010    -0.6030     2.5860 ca         1 KMP      -0.045000
     16 O12          0.7590     0.0950    -0.0650 os         1 KMP      -0.203200
     17 O13         -2.8620     0.0810    -1.8220 o          1 KMP      -0.618100
     18 O24          0.8360    -0.0200     6.1790 oh         1 KMP      -0.488100
     19 O27         -2.7080     0.0010     0.8650 oh         1 KMP      -0.480100
     20 O29          3.0660     0.1160    -4.1040 oh         1 KMP      -0.480100
     21 O30         -1.6590     0.1240    -4.1600 oh         1 KMP      -0.495100
     22 H1           0.6760     0.1310    -5.2580 ha         1 KMP       0.156000
     23 H5           2.8640     0.0930    -1.5400 ha         1 KMP       0.171000
     24 H15         -1.7520     1.2120     2.7610 ha         1 KMP       0.146000
     25 H16         -1.2020     1.1460     5.1320 ha         1 KMP       0.143500
     26 H18          2.3090    -1.1590     4.2580 ha         1 KMP       0.143500
     27 H19          1.7650    -1.1010     1.8920 ha         1 KMP       0.146000
     28 H24          1.6490    -0.5020     6.3690 ho         1 KMP       0.430000
     29 H27         -3.4620    -0.0070     0.2570 ho         1 KMP       0.450000
     30 H29          2.9410     0.1240    -5.0610 ho         1 KMP       0.439000
     31 H30         -2.3990     0.1120    -3.5140 ho         1 KMP       0.482000
@<TRIPOS>BOND
     1     1     2 ar  
     2     1     6 ar  
     3     1    22 1   
     4     2     3 ar  
     5     2    21 1   
     6     3     4 ar  
     7     3     7 1   
     8     4     5 ar  
     9     4    16 1   
    10     5     6 ar  
    11     5    23 1   
    12     6    20 1   
    13     7     8 1   
    14     7    17 2   
    15     8     9 2   
    16     8    19 1   
    17     9    10 1   
    18     9    16 1   
    19    10    11 ar  
    20    10    15 ar  
    21    11    12 ar  
    22    11    24 1   
    23    12    13 ar  
    24    12    25 1   
    25    13    14 ar  
    26    13    18 1   
    27    14    15 ar  
    28    14    26 1   
    29    15    27 1   
    30    18    28 1   
    31    19    29 1   
    32    20    30 1   
    33    21    31 1   
@<TRIPOS>SUBSTRUCTURE
     1 KMP         1 TEMP              0 ****  ****    0 ROOT
