@<TRIPOS>MOLECULE
KMP
   31    33     1     0     0
SMALL
No Charge or Current Charge


@<TRIPOS>ATOM
      1 C1           0.7300     0.0600    -4.2230 ca         1 KMP      -0.313000
      2 C2          -0.4810     0.1790    -3.5380 ca         1 KMP       0.292100
      3 C3          -0.5120     0.1450    -2.1350 ca         1 KMP      -0.380600
      4 C4           0.6830    -0.0100    -1.4280 ca         1 KMP       0.249100
      5 C5           1.8980    -0.1290    -2.1120 ca         1 KMP      -0.242000
      6 C6           1.9210    -0.0940    -3.5080 ca         1 KMP       0.250100
      7 C9          -1.7740     0.2660    -1.3630 c          1 KMP       0.579900
      8 C10         -1.6560     0.2230     0.1180 cc         1 KMP      -0.066100
      9 C11         -0.4190     0.0620     0.7410 cd         1 KMP       0.160900
     10 C14         -0.0890     0.0250     2.2020 ca         1 KMP      -0.096800
     11 C15         -1.0530     0.2600     3.2150 ca         1 KMP      -0.027000
     12 C16         -0.7020     0.2160     4.5760 ca         1 KMP      -0.188500
     13 C17          0.6120    -0.0590     4.9600 ca         1 KMP       0.162100
     14 C18          1.5850    -0.2910     3.9820 ca         1 KMP      -0.188500
     15 C19          1.2410    -0.2490     2.6190 ca         1 KMP      -0.027000
     16 O12          0.6950    -0.0500    -0.0570 os         1 KMP      -0.203200
     17 O13         -2.8560     0.3980    -1.9300 o          1 KMP      -0.618100
     18 O24          0.9370    -0.0980     6.2820 oh         1 KMP      -0.527100
     19 O27         -2.8630     0.3350     0.7430 oh         1 KMP      -0.519100
     20 O29          3.1030    -0.2100    -4.1660 oh         1 KMP      -0.519100
     21 O30         -1.6250     0.3270    -4.2470 oh         1 KMP      -0.534100
     22 H1           0.7350     0.0890    -5.3090 ha         1 KMP       0.138000
     23 H5           2.8230    -0.2490    -1.5570 ha         1 KMP       0.153000
     24 H15         -2.0840     0.4910     2.9780 ha         1 KMP       0.128000
     25 H16         -1.4590     0.4020     5.3340 ha         1 KMP       0.125500
     26 H18          2.6130    -0.5070     4.2660 ha         1 KMP       0.125500
     27 H19          2.0280    -0.4400     1.8940 ha         1 KMP       0.128000
     28 H24          1.8940    -0.3020     6.3600 ho         1 KMP       0.469000
     29 H27         -3.5390     0.4260     0.0280 ho         1 KMP       0.489000
     30 H29          2.9180    -0.1630    -5.1270 ho         1 KMP       0.478000
     31 H30         -2.3430     0.3870    -3.5650 ho         1 KMP       0.521000
@<TRIPOS>BOND
     1     1     2 ar  
     2     1     6 ar  
     3     1    22 1   
     4     2     3 ar  
     5     2    21 1   
     6     3     4 ar  
     7     3     7 1   
     8     4     5 ar  
     9     4    16 1   
    10     5     6 ar  
    11     5    23 1   
    12     6    20 1   
    13     7     8 1   
    14     7    17 2   
    15     8     9 2   
    16     8    19 1   
    17     9    10 1   
    18     9    16 1   
    19    10    11 ar  
    20    10    15 ar  
    21    11    12 ar  
    22    11    24 1   
    23    12    13 ar  
    24    12    25 1   
    25    13    14 ar  
    26    13    18 1   
    27    14    15 ar  
    28    14    26 1   
    29    15    27 1   
    30    18    28 1   
    31    19    29 1   
    32    20    30 1   
    33    21    31 1   
@<TRIPOS>SUBSTRUCTURE
     1 KMP         1 TEMP              0 ****  ****    0 ROOT
