@<TRIPOS>MOLECULE
KMQ
   67    70     1     0     0
SMALL
No Charge or Current Charge


@<TRIPOS>ATOM
      1 C3          71.0560    77.2430    24.0250 c3         1 KMQ       0.201800
      2 C21         72.4910    77.0510    24.4700 c2         1 KMQ      -0.237200
      3 C1          72.9200    76.1390    25.3590 c2         1 KMQ      -0.227200
      4 C7          74.3550    75.9600    25.8020 c3         1 KMQ      -0.049900
      5 O2D         70.6050    78.5240    24.5010 os         1 KMQ      -0.428000
      6 C2D         70.4290    78.7160    25.9470 c5         1 KMQ       0.092300
      7 C3D         69.0060    78.2640    26.4230 c5         1 KMQ       0.112300
      8 O3D         68.6120    76.9310    26.0370 oh         1 KMQ      -0.717000
      9 C1D         70.2420    80.2460    26.1940 c5         1 KMQ       0.377300
     10 O1D         71.2510    81.0160    25.5640 oh         1 KMQ      -0.723000
     11 O4D         68.9840    80.5270    25.5680 os         1 KMQ      -0.475000
     12 C4D         68.0960    79.4020    25.8340 c5         1 KMQ       0.165300
     13 C5D         66.9280    79.8140    26.7800 c3         1 KMQ       0.234600
     14 O5D         67.4530    80.4730    27.9460 os         1 KMQ      -0.597400
     15 PB          66.7350    80.2530    29.3700 p5         1 KMQ       1.462800
     16 O2B         67.1010    81.3080    30.3590 o          1 KMQ      -0.845000
     17 O1B         65.2540    80.2150    29.1970 o          1 KMQ      -0.845000
     18 O3A         67.2780    78.8150    29.7230 os         1 KMQ      -0.731800
     19 PA          68.7240    78.7340    30.3430 p5         1 KMQ       1.457800
     20 O1A         69.2710    77.3640    30.1320 o          1 KMQ      -0.845500
     21 O2A         69.6880    79.7460    29.8270 o          1 KMQ      -0.845500
     22 O5          68.3670    78.9610    31.9000 os         1 KMQ      -0.587400
     23 C5          68.0580    77.8650    32.7790 c3         1 KMQ       0.225600
     24 C4          66.7720    77.0920    32.3380 c5         1 KMQ       0.134300
     25 O4          66.5140    76.0180    33.2810 os         1 KMQ      -0.447000
     26 C10         65.6350    76.5000    34.3280 c5         1 KMQ       0.275300
     27 C2          65.1750    77.9490    33.9030 c5         1 KMQ       0.070300
     28 O2          63.7840    78.2240    34.1740 oh         1 KMQ      -0.712000
     29 C9          65.4510    77.9220    32.3720 c5         1 KMQ       0.166300
     30 O3          64.3590    77.2730    31.7070 oh         1 KMQ      -0.689000
     31 N9          66.2870    76.3240    35.6290 na         1 KMQ      -0.277300
     32 C8          66.9660    77.3020    36.3690 cc         1 KMQ       0.432700
     33 N7          67.4270    76.8080    37.5340 nd         1 KMQ      -0.585100
     34 C11         67.0100    75.4740    37.5050 ca         1 KMQ      -0.096600
     35 C12         66.3220    75.1680    36.3580 ca         1 KMQ       0.128500
     36 C6          67.2020    74.4500    38.4570 ca         1 KMQ       0.440900
     37 N6          67.8740    74.6460    39.6230 nv         1 KMQ      -1.080900
     38 N1          66.7310    73.2100    38.2500 nb         1 KMQ      -0.320000
     39 C13         66.0640    73.0140    37.0860 ca         1 KMQ       0.162900
     40 N3          65.8310    73.9350    36.1200 nb         1 KMQ      -0.196000
     41 H1          71.0160    77.2190    22.9280 h1         1 KMQ       0.034700
     42 H2          70.4270    76.4240    24.3930 h1         1 KMQ       0.034700
     43 H3          73.1920    77.7410    23.9990 ha         1 KMQ       0.172000
     44 H4          72.2150    75.4500    25.8300 ha         1 KMQ       0.168000
     45 H5          74.7130    74.9500    25.5690 hc         1 KMQ       0.029700
     46 H6          75.0240    76.6740    25.3060 hc         1 KMQ       0.029700
     47 H7          74.4520    76.1090    26.8840 hc         1 KMQ       0.029700
     48 H8          71.2590    78.2860    26.5250 h1         1 KMQ       0.074700
     49 H9          68.9800    78.3380    27.5180 h1         1 KMQ       0.109700
     50 H10         69.1060    76.3020    26.6120 ho         1 KMQ       0.502000
     51 H11         70.1880    80.4650    27.2710 h2         1 KMQ       0.099700
     52 H12         71.2840    80.6230    24.6630 ho         1 KMQ       0.506000
     53 H13         67.6620    79.0870    24.8750 h1         1 KMQ       0.032700
     54 H14         66.2540    80.4880    26.2370 h1         1 KMQ       0.024200
     55 H15         66.3600    78.9130    27.0470 h1         1 KMQ       0.024200
     56 H18         68.8980    77.1580    32.8060 h1         1 KMQ       0.018700
     57 H19         67.9300    78.2430    33.8000 h1         1 KMQ       0.018700
     58 H20         66.9440    76.6590    31.3430 h1         1 KMQ       0.154700
     59 H21         64.7530    75.8470    34.3560 h2         1 KMQ       0.104700
     60 H22         65.8020    78.7210    34.3670 h1         1 KMQ       0.046700
     61 H23         63.6990    78.4370    35.1350 ho         1 KMQ       0.500000
     62 H24         65.6000    78.9370    31.9760 h1         1 KMQ       0.092700
     63 H25         63.5990    77.4540    32.3140 ho         1 KMQ       0.496000
     64 H26         67.0940    78.3210    36.0220 h5         1 KMQ       0.082800
     65 H27         68.2290    73.8280    40.1100 hn         1 KMQ       0.498000
     66 H28         68.4210    75.5000    39.7010 hn         1 KMQ       0.498000
     67 H29         65.6760    72.0130    36.9090 h5         1 KMQ       0.035100
@<TRIPOS>BOND
     1     1     2 1   
     2     1     5 1   
     3     1    41 1   
     4     1    42 1   
     5     2     3 2   
     6     2    43 1   
     7     3     4 1   
     8     3    44 1   
     9     4    45 1   
    10     4    46 1   
    11     4    47 1   
    12     5     6 1   
    13     6     7 1   
    14     6     9 1   
    15     6    48 1   
    16     7     8 1   
    17     7    12 1   
    18     7    49 1   
    19     8    50 1   
    20     9    10 1   
    21     9    11 1   
    22     9    51 1   
    23    10    52 1   
    24    11    12 1   
    25    12    13 1   
    26    12    53 1   
    27    13    14 1   
    28    13    54 1   
    29    13    55 1   
    30    14    15 1   
    31    15    16 1   
    32    15    17 1   
    33    15    18 1   
    34    18    19 1   
    35    19    20 1   
    36    19    21 1   
    37    19    22 1   
    38    22    23 1   
    39    23    24 1   
    40    23    56 1   
    41    23    57 1   
    42    24    25 1   
    43    24    29 1   
    44    24    58 1   
    45    25    26 1   
    46    26    27 1   
    47    26    31 1   
    48    26    59 1   
    49    27    28 1   
    50    27    29 1   
    51    27    60 1   
    52    28    61 1   
    53    29    30 1   
    54    29    62 1   
    55    30    63 1   
    56    31    32 1   
    57    31    35 1   
    58    32    33 2   
    59    32    64 1   
    60    33    34 1   
    61    34    35 ar  
    62    34    36 ar  
    63    35    40 ar  
    64    36    37 1   
    65    36    38 ar  
    66    37    65 1   
    67    37    66 1   
    68    38    39 ar  
    69    39    40 ar  
    70    39    67 1   
@<TRIPOS>SUBSTRUCTURE
     1 KMQ         1 TEMP              0 ****  ****    0 ROOT
