@<TRIPOS>MOLECULE
KMQ
   67    70     1     0     0
SMALL
bcc


@<TRIPOS>ATOM
      1 C3          71.7920    76.8200    24.6480 c3         1 KMQ       0.178600
      2 C21         73.0420    77.6020    24.9010 c2         1 KMQ      -0.187200
      3 C1          73.8840    77.3570    25.9010 c2         1 KMQ      -0.177200
      4 C7          75.1450    78.1110    26.1630 c3         1 KMQ      -0.049900
      5 O2D         70.6450    77.6480    24.6220 os         1 KMQ      -0.381600
      6 C2D         70.1960    78.0740    25.8800 c5         1 KMQ       0.069100
      7 C3D         68.8970    77.3610    26.2600 c5         1 KMQ       0.089100
      8 O3D         68.8400    75.9910    25.9780 oh         1 KMQ      -0.594800
      9 C1D         69.6960    79.5110    25.7950 c5         1 KMQ       0.330900
     10 O1D         70.5140    80.2960    25.0120 oh         1 KMQ      -0.600800
     11 O4D         68.3980    79.4140    25.2270 os         1 KMQ      -0.428600
     12 C4D         67.8700    78.1100    25.4070 c5         1 KMQ       0.142100
     13 C5D         66.4660    78.1710    25.9790 c3         1 KMQ       0.211400
     14 O5D         66.3950    78.9660    27.1420 os         1 KMQ      -0.574200
     15 PB          65.9610    78.3940    28.6190 p5         1 KMQ       1.462800
     16 O2B         65.2660    79.5170    29.3200 o          1 KMQ      -0.845000
     17 O1B         65.3380    77.0410    28.4850 o          1 KMQ      -0.845000
     18 O3A         67.4350    78.1260    29.3100 os         1 KMQ      -0.731800
     19 PA          68.5570    79.1930    29.8700 p5         1 KMQ       1.457800
     20 O1A         69.8460    78.4310    29.8920 o          1 KMQ      -0.845500
     21 O2A         68.4420    80.5250    29.2030 o          1 KMQ      -0.845500
     22 O5          68.0330    79.4330    31.4120 os         1 KMQ      -0.564200
     23 C5          67.8300    78.3340    32.2710 c3         1 KMQ       0.202400
     24 C4          66.3680    78.3050    32.7000 c5         1 KMQ       0.111100
     25 O4          66.1130    77.0910    33.4130 os         1 KMQ      -0.400600
     26 C10         65.8340    77.3570    34.7590 c5         1 KMQ       0.222800
     27 C2          66.2880    78.8020    35.0030 c5         1 KMQ       0.047100
     28 O2          65.6140    79.4500    36.0370 oh         1 KMQ      -0.589800
     29 C9          65.9770    79.4320    33.6480 c5         1 KMQ       0.143100
     30 O3          64.6000    79.6730    33.4990 oh         1 KMQ      -0.566800
     31 N9          66.4960    76.3760    35.5830 na         1 KMQ      -0.248000
     32 C8          67.8410    76.1250    35.6550 cc         1 KMQ       0.432700
     33 N7          68.1390    75.1200    36.4220 nd         1 KMQ      -0.585100
     34 C11         66.9270    74.6710    36.8820 ca         1 KMQ      -0.227200
     35 C12         65.8920    75.4340    36.3670 ca         1 KMQ       0.456800
     36 C6          66.5600    73.6140    37.7350 ca         1 KMQ       0.769200
     37 N6          67.4520    72.7970    38.2970 nv         1 KMQ      -0.970500
     38 N1          65.2580    73.4310    37.9800 nb         1 KMQ      -0.846000
     39 C13         64.3720    74.2460    37.4140 ca         1 KMQ       0.688900
     40 N3          64.5930    75.2650    36.6020 nb         1 KMQ      -0.722000
     41 H1          71.8340    76.3480    23.6630 h1         1 KMQ       0.034700
     42 H2          71.6930    76.0150    25.3860 h1         1 KMQ       0.034700
     43 H3          73.2540    78.4110    24.2060 ha         1 KMQ       0.122000
     44 H4          73.6550    76.5470    26.5900 ha         1 KMQ       0.118000
     45 H5          76.0140    77.4500    26.1230 hc         1 KMQ       0.029700
     46 H6          75.2950    78.9120    25.4390 hc         1 KMQ       0.029700
     47 H7          75.1370    78.5510    27.1630 hc         1 KMQ       0.029700
     48 H8          70.9730    77.9720    26.6470 h1         1 KMQ       0.074700
     49 H9          68.7130    77.5540    27.3200 h1         1 KMQ       0.109700
     50 H10         69.2610    75.5130    26.6980 ho         1 KMQ       0.403000
     51 H11         69.6060    79.9250    26.8090 h2         1 KMQ       0.099700
     52 H12         70.3730    81.2200    25.2400 ho         1 KMQ       0.407000
     53 H13         67.7930    77.6030    24.4340 h1         1 KMQ       0.032700
     54 H14         65.7980    78.6090    25.2300 h1         1 KMQ       0.024200
     55 H15         66.1200    77.1480    26.1510 h1         1 KMQ       0.024200
     56 H18         68.0760    77.3770    31.8010 h1         1 KMQ       0.018700
     57 H19         68.4890    78.4320    33.1410 h1         1 KMQ       0.018700
     58 H20         65.7410    78.3270    31.8030 h1         1 KMQ       0.154700
     59 H21         64.7650    77.2610    34.9750 h2         1 KMQ       0.104700
     60 H22         67.3760    78.8260    35.1560 h1         1 KMQ       0.046700
     61 H23         65.9410    79.1230    36.8810 ho         1 KMQ       0.401000
     62 H24         66.5690    80.3380    33.4720 h1         1 KMQ       0.092700
     63 H25         64.3160    80.2700    34.1990 ho         1 KMQ       0.397000
     64 H26         68.5610    76.7180    35.1090 h5         1 KMQ       0.082800
     65 H27         67.1490    72.0500    38.8980 hn         1 KMQ       0.442800
     66 H28         68.4360    72.9040    38.1270 hn         1 KMQ       0.442800
     67 H29         63.3330    74.0420    37.6520 h5         1 KMQ       0.035100
@<TRIPOS>BOND
     1     1     2 1   
     2     1     5 1   
     3     1    41 1   
     4     1    42 1   
     5     2     3 2   
     6     2    43 1   
     7     3     4 1   
     8     3    44 1   
     9     4    45 1   
    10     4    46 1   
    11     4    47 1   
    12     5     6 1   
    13     6     7 1   
    14     6     9 1   
    15     6    48 1   
    16     7     8 1   
    17     7    12 1   
    18     7    49 1   
    19     8    50 1   
    20     9    10 1   
    21     9    11 1   
    22     9    51 1   
    23    10    52 1   
    24    11    12 1   
    25    12    13 1   
    26    12    53 1   
    27    13    14 1   
    28    13    54 1   
    29    13    55 1   
    30    14    15 1   
    31    15    16 1   
    32    15    17 1   
    33    15    18 1   
    34    18    19 1   
    35    19    20 1   
    36    19    21 1   
    37    19    22 1   
    38    22    23 1   
    39    23    24 1   
    40    23    56 1   
    41    23    57 1   
    42    24    25 1   
    43    24    29 1   
    44    24    58 1   
    45    25    26 1   
    46    26    27 1   
    47    26    31 1   
    48    26    59 1   
    49    27    28 1   
    50    27    29 1   
    51    27    60 1   
    52    28    61 1   
    53    29    30 1   
    54    29    62 1   
    55    30    63 1   
    56    31    32 1   
    57    31    35 1   
    58    32    33 2   
    59    32    64 1   
    60    33    34 1   
    61    34    35 ar  
    62    34    36 ar  
    63    35    40 ar  
    64    36    37 1   
    65    36    38 ar  
    66    37    65 1   
    67    37    66 1   
    68    38    39 ar  
    69    39    40 ar  
    70    39    67 1   
@<TRIPOS>SUBSTRUCTURE
     1 KMQ         1 TEMP              0 ****  ****    0 ROOT
