@<TRIPOS>MOLECULE
KMR
   42    43     1     0     0
SMALL
abcg2


@<TRIPOS>ATOM
      1 C10        -20.4420    -2.4660    25.4440 c3         1 KMR       0.170800
      2 C12        -19.2600    -3.6850    27.1920 c6         1 KMR       0.166800
      3 C02        -25.6160    -1.2470    23.3610 ca         1 KMR       0.599900
      4 C03        -25.7120    -1.1510    21.9610 ca         1 KMR      -0.232000
      5 C04        -24.5580    -1.0150    21.2190 ca         1 KMR       0.000700
      6 C05        -23.3350    -0.9840    21.9010 ca         1 KMR      -0.217000
      7 C06        -23.3310    -1.0870    23.2800 ca         1 KMR       0.400300
      8 C08        -22.0450    -1.0950    24.0550 c3         1 KMR      -0.127700
      9 C09        -21.7290    -2.4770    24.6280 c3         1 KMR      -0.074400
     10 C13        -17.7990    -3.4860    26.8090 c6         1 KMR       0.127300
     11 C15        -18.2140    -4.5780    24.7280 c6         1 KMR       0.127300
     12 C16        -19.6740    -4.7670    25.1270 c6         1 KMR       0.166800
     13 C17        -15.9740    -4.4020    25.5590 c3         1 KMR       0.152100
     14 N01        -24.4510    -1.2120    23.9970 nb         1 KMR      -0.750000
     15 N02        -26.7360    -1.4280    24.1230 nv         1 KMR      -1.054900
     16 N11        -20.1600    -3.7560    26.0530 n3         1 KMR      -0.719600
     17 N14        -17.3680    -4.5370    25.9070 n3         1 KMR      -0.711600
     18 H1         -19.6210    -2.0850    24.8170 h1         1 KMR       0.026700
     19 H2         -20.5600    -1.7380    26.2520 h1         1 KMR       0.026700
     20 H3         -19.5810    -2.8820    27.8590 h1         1 KMR       0.058200
     21 H4         -19.3450    -4.6210    27.7540 h1         1 KMR       0.058200
     22 H5         -26.6820    -1.1840    21.4800 ha         1 KMR       0.118000
     23 H6         -22.4040    -0.8800    21.3580 ha         1 KMR       0.120000
     24 H7         -24.3500     0.1340    19.4240 hc         1 KMR       0.046033
     25 H8         -23.8770    -1.5460    19.2530 hc         1 KMR       0.046033
     26 H9         -25.5890    -1.1140    19.3300 hc         1 KMR       0.046033
     27 H10        -21.2240    -0.7680    23.4120 hc         1 KMR       0.049700
     28 H11        -22.1160    -0.3710    24.8730 hc         1 KMR       0.049700
     29 H12        -22.5520    -2.8100    25.2640 hc         1 KMR       0.056200
     30 H13        -21.6580    -3.1920    23.8040 hc         1 KMR       0.056200
     31 H14        -17.1820    -3.5180    27.7120 h1         1 KMR       0.032700
     32 H15        -17.6540    -2.4840    26.3650 h1         1 KMR       0.032700
     33 H16        -17.9060    -5.4150    24.0960 h1         1 KMR       0.032700
     34 H17        -18.1020    -3.6650    24.1170 h1         1 KMR       0.032700
     35 H18        -20.2990    -4.7870    24.2330 h1         1 KMR       0.058200
     36 H19        -19.7800    -5.7460    25.6060 h1         1 KMR       0.058200
     37 H20        -15.3590    -4.4290    26.4610 h1         1 KMR       0.029367
     38 H21        -15.6640    -5.2300    24.9190 h1         1 KMR       0.029367
     39 H22        -15.7470    -3.4640    25.0280 h1         1 KMR       0.029367
     40 H23        -26.6430    -1.2190    25.1030 hn         1 KMR       0.468000
     41 H24        -27.6190    -1.1490    23.7260 hn         1 KMR       0.468000
     42 C07        -24.6020    -0.8840    19.7270 c3         1 KMR      -0.052800
@<TRIPOS>BOND
     1     1     9 1   
     2     1    16 1   
     3     1    18 1   
     4     1    19 1   
     5     2    10 1   
     6     2    16 1   
     7     2    20 1   
     8     2    21 1   
     9     3     4 ar  
    10     3    14 ar  
    11     3    15 1   
    12     4     5 ar  
    13     4    22 1   
    14     5     6 ar  
    15     5    42 1   
    16     6     7 ar  
    17     6    23 1   
    18     7     8 1   
    19     7    14 ar  
    20     8     9 1   
    21     8    27 1   
    22     8    28 1   
    23     9    29 1   
    24     9    30 1   
    25    10    17 1   
    26    10    31 1   
    27    10    32 1   
    28    11    12 1   
    29    11    17 1   
    30    11    33 1   
    31    11    34 1   
    32    12    16 1   
    33    12    35 1   
    34    12    36 1   
    35    13    17 1   
    36    13    37 1   
    37    13    38 1   
    38    13    39 1   
    39    15    40 1   
    40    15    41 1   
    41    24    42 1   
    42    25    42 1   
    43    26    42 1   
@<TRIPOS>SUBSTRUCTURE
     1 KMR         1 TEMP              0 ****  ****    0 ROOT
