@<TRIPOS>MOLECULE
KMR
   42    43     1     0     0
SMALL
No Charge or Current Charge


@<TRIPOS>ATOM
      1 C10        -20.6000    -2.6130    25.7420 c3         1 KMR       0.170800
      2 C12        -19.1700    -3.9570    27.2660 c6         1 KMR       0.166800
      3 C02        -25.7190    -0.8680    23.2350 ca         1 KMR       0.599900
      4 C03        -25.6420    -1.0300    21.8500 ca         1 KMR      -0.232000
      5 C04        -24.3820    -1.2440    21.2730 ca         1 KMR       0.000700
      6 C05        -23.2750    -1.2740    22.1360 ca         1 KMR      -0.217000
      7 C06        -23.4680    -1.0950    23.5190 ca         1 KMR       0.400300
      8 C08        -22.2860    -1.1290    24.4780 c3         1 KMR      -0.127700
      9 C09        -21.8100    -2.5690    24.7800 c3         1 KMR      -0.074400
     10 C13        -17.7560    -3.5300    26.7460 c6         1 KMR       0.127300
     11 C15        -18.3110    -4.4540    24.5340 c6         1 KMR       0.127300
     12 C16        -19.7170    -4.8750    25.0790 c6         1 KMR       0.166800
     13 C17        -15.9460    -4.0030    25.1200 c3         1 KMR       0.152100
     14 N01        -24.6880    -0.8910    24.0660 nb         1 KMR      -0.750000
     15 N02        -26.8610    -0.6510    23.8900 nv         1 KMR      -1.054900
     16 N11        -20.2030    -3.9780    26.1810 n3         1 KMR      -0.719600
     17 N14        -17.2830    -4.3910    25.6180 n3         1 KMR      -0.711600
     18 H1         -19.7560    -2.1000    25.2620 h1         1 KMR       0.026700
     19 H2         -20.8660    -2.0220    26.6290 h1         1 KMR       0.026700
     20 H3         -19.4740    -3.2790    28.0780 h1         1 KMR       0.058200
     21 H4         -19.0810    -4.9580    27.7140 h1         1 KMR       0.058200
     22 H5         -26.5390    -0.9930    21.2400 ha         1 KMR       0.118000
     23 H6         -22.2740    -1.4350    21.7450 ha         1 KMR       0.120000
     24 H7         -24.0250    -0.4700    19.2810 hc         1 KMR       0.046033
     25 H8         -23.3830    -2.1010    19.5440 hc         1 KMR       0.046033
     26 H9         -25.1220    -1.8610    19.3240 hc         1 KMR       0.046033
     27 H10        -21.4530    -0.5590    24.0490 hc         1 KMR       0.049700
     28 H11        -22.5430    -0.6310    25.4210 hc         1 KMR       0.049700
     29 H12        -22.6390    -3.1370    25.2210 hc         1 KMR       0.056200
     30 H13        -21.5500    -3.0580    23.8350 hc         1 KMR       0.056200
     31 H14        -17.0450    -3.5820    27.5840 h1         1 KMR       0.032700
     32 H15        -17.7950    -2.4770    26.4280 h1         1 KMR       0.032700
     33 H16        -18.0030    -5.1770    23.7650 h1         1 KMR       0.032700
     34 H17        -18.3990    -3.4770    24.0350 h1         1 KMR       0.032700
     35 H18        -20.4320    -4.9150    24.2450 h1         1 KMR       0.058200
     36 H19        -19.6360    -5.9060    25.4550 h1         1 KMR       0.058200
     37 H20        -15.2080    -4.0270    25.9330 h1         1 KMR       0.029367
     38 H21        -15.6090    -4.6940    24.3360 h1         1 KMR       0.029367
     39 H22        -15.9630    -2.9880    24.7000 h1         1 KMR       0.029367
     40 H23        -26.7470    -0.3190    24.8400 hn         1 KMR       0.468000
     41 H24        -27.6400    -0.2700    23.3650 hn         1 KMR       0.468000
     42 C07        -24.2200    -1.4300    19.7730 c3         1 KMR      -0.052800
@<TRIPOS>BOND
     1     1     9 1   
     2     1    16 1   
     3     1    18 1   
     4     1    19 1   
     5     2    10 1   
     6     2    16 1   
     7     2    20 1   
     8     2    21 1   
     9     3     4 ar  
    10     3    14 ar  
    11     3    15 1   
    12     4     5 ar  
    13     4    22 1   
    14     5     6 ar  
    15     5    42 1   
    16     6     7 ar  
    17     6    23 1   
    18     7     8 1   
    19     7    14 ar  
    20     8     9 1   
    21     8    27 1   
    22     8    28 1   
    23     9    29 1   
    24     9    30 1   
    25    10    17 1   
    26    10    31 1   
    27    10    32 1   
    28    11    12 1   
    29    11    17 1   
    30    11    33 1   
    31    11    34 1   
    32    12    16 1   
    33    12    35 1   
    34    12    36 1   
    35    13    17 1   
    36    13    37 1   
    37    13    38 1   
    38    13    39 1   
    39    15    40 1   
    40    15    41 1   
    41    24    42 1   
    42    25    42 1   
    43    26    42 1   
@<TRIPOS>SUBSTRUCTURE
     1 KMR         1 TEMP              0 ****  ****    0 ROOT
