@<TRIPOS>MOLECULE
KMS
   49    50     1     0     0
SMALL
bcc


@<TRIPOS>ATOM
      1 C02         -5.7530    -0.2210    -0.8610 ca         1 KMS       0.664200
      2 C04         -5.5790    -1.8840     0.8630 ca         1 KMS       0.001700
      3 C05         -4.3160    -1.3570     1.1510 ca         1 KMS      -0.297300
      4 C06         -3.8500    -0.2850     0.4110 ca         1 KMS       0.461600
      5 C09         -1.5470     0.1050    -0.5250 c3         1 KMS      -0.022100
      6 C11         -0.1830     0.6720    -0.2550 ca         1 KMS      -0.105300
      7 C12          0.0780     2.0220    -0.4100 ca         1 KMS       0.121900
      8 C03         -6.3050    -1.3050    -0.1600 ca         1 KMS      -0.315300
      9 C07         -6.1390    -3.0250     1.6560 c3         1 KMS      -0.053800
     10 C08         -2.4910     0.3030     0.6690 c3         1 KMS      -0.123700
     11 C13          1.3190     2.5560    -0.1150 ca         1 KMS       0.055900
     12 C14          2.3240     1.7290     0.3490 ca         1 KMS       0.120900
     13 C15          2.1190     0.3710     0.5250 ca         1 KMS      -0.104300
     14 C16          0.8570    -0.1260     0.2130 ca         1 KMS      -0.097000
     15 C17          3.2240    -0.5260     1.0030 c3         1 KMS      -0.027100
     16 C18          4.2240    -0.8750    -0.1030 c3         1 KMS      -0.076400
     17 C19          5.2830    -1.8430     0.4050 c3         1 KMS       0.166800
     18 C21          7.4620    -2.7700     0.1190 c3         1 KMS       0.150600
     19 C22          5.9950    -2.6550    -1.7530 c3         1 KMS       0.150600
     20 F12         -0.8740     2.8530    -0.8510 f          1 KMS      -0.117900
     21 F13          1.5420     3.8610    -0.2740 f          1 KMS      -0.109900
     22 F14          3.5100     2.2790     0.6320 f          1 KMS      -0.120900
     23 N01         -4.5520     0.2720    -0.5760 nb         1 KMS      -0.749000
     24 N02         -6.4620     0.4040    -1.8480 nv         1 KMS      -0.940500
     25 N20          6.3930    -2.0270    -0.5110 n3         1 KMS      -0.712600
     26 H1          -3.7060    -1.7850     1.9370 ha         1 KMS       0.138000
     27 H2          -1.9900     0.5550    -1.4140 hc         1 KMS       0.063700
     28 H3          -1.4490    -0.9630    -0.7310 hc         1 KMS       0.063700
     29 H4          -7.2870    -1.6800    -0.4240 ha         1 KMS       0.138000
     30 H5          -6.7600    -2.6510     2.4730 hc         1 KMS       0.047033
     31 H6          -6.7650    -3.6720     1.0440 hc         1 KMS       0.047033
     32 H7          -5.3490    -3.6290     2.1000 hc         1 KMS       0.047033
     33 H8          -2.5970     1.3710     0.8760 hc         1 KMS       0.058700
     34 H9          -2.0510    -0.1530     1.5580 hc         1 KMS       0.058700
     35 H10          0.6750    -1.1860     0.3460 ha         1 KMS       0.141000
     36 H11          3.7520    -0.0640     1.8410 hc         1 KMS       0.053200
     37 H12          2.7800    -1.4460     1.3910 hc         1 KMS       0.053200
     38 H13          3.6780    -1.3040    -0.9460 hc         1 KMS       0.054200
     39 H14          4.7130     0.0310    -0.4690 hc         1 KMS       0.054200
     40 H15          5.6930    -1.4480     1.3410 h1         1 KMS       0.028200
     41 H16          4.8030    -2.8050     0.6640 h1         1 KMS       0.028200
     42 H17          8.3140    -2.8480    -0.5580 h1         1 KMS       0.030033
     43 H18          7.7980    -2.2520     1.0200 h1         1 KMS       0.030033
     44 H19          7.1710    -3.7920     0.4090 h1         1 KMS       0.030033
     45 H20          5.5690    -3.6620    -1.6130 h1         1 KMS       0.030033
     46 H21          5.2550    -2.0500    -2.2770 h1         1 KMS       0.030033
     47 H22          6.8600    -2.7510    -2.4100 h1         1 KMS       0.030033
     48 H23         -7.1930    -0.1230    -2.2950 hn         1 KMS       0.411800
     49 H24         -5.9250     0.9720    -2.4830 hn         1 KMS       0.411800
@<TRIPOS>BOND
     1     1     8 ar  
     2     1    23 ar  
     3     1    24 1   
     4     2     3 ar  
     5     2     8 ar  
     6     2     9 1   
     7     3     4 ar  
     8     3    26 1   
     9     4    10 1   
    10     4    23 ar  
    11     5     6 1   
    12     5    10 1   
    13     5    27 1   
    14     5    28 1   
    15     6     7 ar  
    16     6    14 ar  
    17     7    11 ar  
    18     7    20 1   
    19     8    29 1   
    20     9    30 1   
    21     9    31 1   
    22     9    32 1   
    23    10    33 1   
    24    10    34 1   
    25    11    12 ar  
    26    11    21 1   
    27    12    13 ar  
    28    12    22 1   
    29    13    14 ar  
    30    13    15 1   
    31    14    35 1   
    32    15    16 1   
    33    15    36 1   
    34    15    37 1   
    35    16    17 1   
    36    16    38 1   
    37    16    39 1   
    38    17    25 1   
    39    17    40 1   
    40    17    41 1   
    41    18    25 1   
    42    18    42 1   
    43    18    43 1   
    44    18    44 1   
    45    19    25 1   
    46    19    45 1   
    47    19    46 1   
    48    19    47 1   
    49    24    48 1   
    50    24    49 1   
@<TRIPOS>SUBSTRUCTURE
     1 KMS         1 TEMP              0 ****  ****    0 ROOT
