@<TRIPOS>MOLECULE
KMS
   49    50     1     0     0
SMALL
No Charge or Current Charge


@<TRIPOS>ATOM
      1 C02         -6.0320     0.0100    -0.2590 ca         1 KMS       0.598900
      2 C04         -5.2960    -2.1510     0.4950 ca         1 KMS       0.001700
      3 C05         -4.0350    -1.5620     0.6860 ca         1 KMS      -0.214000
      4 C06         -3.8540    -0.1990     0.3830 ca         1 KMS       0.396300
      5 C09         -1.5360     0.1790    -0.6040 c3         1 KMS      -0.022100
      6 C11         -0.1650     0.8170    -0.3890 ca         1 KMS      -0.105300
      7 C12          0.0840     2.1550    -0.7610 ca         1 KMS       0.157000
      8 C03         -6.3230    -1.3300     0.0060 ca         1 KMS      -0.232000
      9 C07         -5.5370    -3.6180     0.8100 c3         1 KMS      -0.053800
     10 C08         -2.4970     0.4630     0.5700 c3         1 KMS      -0.123700
     11 C13          1.3510     2.7260    -0.5520 ca         1 KMS       0.091000
     12 C14          2.3780     1.9640     0.0320 ca         1 KMS       0.156000
     13 C15          2.1430     0.6260     0.4140 ca         1 KMS      -0.104300
     14 C16          0.8700     0.0610     0.1990 ca         1 KMS      -0.079000
     15 C17          3.2460    -0.2190     1.0470 c3         1 KMS      -0.027100
     16 C18          4.1550    -0.8750    -0.0150 c3         1 KMS      -0.076400
     17 C19          5.2720    -1.7460     0.6050 c3         1 KMS       0.166800
     18 C21          7.4240    -2.8970     0.3090 c3         1 KMS       0.150600
     19 C22          5.6730    -3.1840    -1.3860 c3         1 KMS       0.150600
     20 F12         -0.9000     2.9000    -1.3200 f          1 KMS      -0.153000
     21 F13          1.5840     4.0120    -0.9150 f          1 KMS      -0.145000
     22 F14          3.5970     2.5220     0.2240 f          1 KMS      -0.156000
     23 N01         -4.8500     0.5820    -0.0910 nb         1 KMS      -0.749000
     24 N02         -6.9280     0.8780    -0.7340 nv         1 KMS      -1.050900
     25 N20          6.2600    -2.2800    -0.3670 n3         1 KMS      -0.712600
     26 H1          -3.2030    -2.1490     1.0640 ha         1 KMS       0.120000
     27 H2          -1.9870     0.5430    -1.5360 hc         1 KMS       0.063700
     28 H3          -1.4310    -0.9060    -0.7280 hc         1 KMS       0.063700
     29 H4          -7.3210    -1.7220    -0.1610 ha         1 KMS       0.120000
     30 H5          -5.8260    -3.7490     1.8600 hc         1 KMS       0.047033
     31 H6          -6.3380    -4.0340     0.1870 hc         1 KMS       0.047033
     32 H7          -4.6370    -4.2170     0.6320 hc         1 KMS       0.047033
     33 H8          -2.6130     1.5470     0.6870 hc         1 KMS       0.058700
     34 H9          -2.0410     0.1040     1.5000 hc         1 KMS       0.058700
     35 H10          0.6830    -0.9710     0.4900 ha         1 KMS       0.123000
     36 H11          3.8580     0.3950     1.7190 hc         1 KMS       0.053200
     37 H12          2.8070    -1.0050     1.6740 hc         1 KMS       0.053200
     38 H13          3.5310    -1.4850    -0.6780 hc         1 KMS       0.054200
     39 H14          4.6120    -0.0910    -0.6310 hc         1 KMS       0.054200
     40 H15          5.7980    -1.1270     1.3440 h1         1 KMS       0.028200
     41 H16          4.8060    -2.5740     1.1570 h1         1 KMS       0.028200
     42 H17          8.1790    -3.2090    -0.4250 h1         1 KMS       0.030033
     43 H18          7.8980    -2.1830     0.9960 h1         1 KMS       0.030033
     44 H19          7.1190    -3.7800     0.8860 h1         1 KMS       0.030033
     45 H20          5.1950    -4.0510    -0.9120 h1         1 KMS       0.030033
     46 H21          4.9230    -2.6640    -1.9950 h1         1 KMS       0.030033
     47 H22          6.4500    -3.5530    -2.0690 h1         1 KMS       0.030033
     48 H23         -7.7360     0.4990    -1.2140 hn         1 KMS       0.467000
     49 H24         -6.5410     1.7400    -1.0990 hn         1 KMS       0.467000
@<TRIPOS>BOND
     1     1     8 ar  
     2     1    23 ar  
     3     1    24 1   
     4     2     3 ar  
     5     2     8 ar  
     6     2     9 1   
     7     3     4 ar  
     8     3    26 1   
     9     4    10 1   
    10     4    23 ar  
    11     5     6 1   
    12     5    10 1   
    13     5    27 1   
    14     5    28 1   
    15     6     7 ar  
    16     6    14 ar  
    17     7    11 ar  
    18     7    20 1   
    19     8    29 1   
    20     9    30 1   
    21     9    31 1   
    22     9    32 1   
    23    10    33 1   
    24    10    34 1   
    25    11    12 ar  
    26    11    21 1   
    27    12    13 ar  
    28    12    22 1   
    29    13    14 ar  
    30    13    15 1   
    31    14    35 1   
    32    15    16 1   
    33    15    36 1   
    34    15    37 1   
    35    16    17 1   
    36    16    38 1   
    37    16    39 1   
    38    17    25 1   
    39    17    40 1   
    40    17    41 1   
    41    18    25 1   
    42    18    42 1   
    43    18    43 1   
    44    18    44 1   
    45    19    25 1   
    46    19    45 1   
    47    19    46 1   
    48    19    47 1   
    49    24    48 1   
    50    24    49 1   
@<TRIPOS>SUBSTRUCTURE
     1 KMS         1 TEMP              0 ****  ****    0 ROOT
