@<TRIPOS>MOLECULE
KMT
   16    15     1     0     0
SMALL
No Charge or Current Charge


@<TRIPOS>ATOM
      1 C1           0.0620    -0.6940    -2.2560 c          1 KMT       0.649000
      2 O1          -0.1380    -0.6190    -3.4670 o          1 KMT      -0.694000
      3 O2           0.5030    -1.7040    -1.7140 o          1 KMT      -0.694000
      4 C2          -0.2860     0.5940    -1.3330 c          1 KMT       0.430100
      5 O5          -1.1380     1.4290    -1.6510 o          1 KMT      -0.567100
      6 C3           0.4910     0.7480    -0.0150 c3         1 KMT      -0.188400
      7 C4          -0.3050     0.1460     1.1550 c3         1 KMT       0.094600
      8 S1           0.6400     0.3470     2.7310 ss         1 KMT      -0.481000
      9 C5          -0.5420    -0.4480     3.9120 c3         1 KMT       0.042900
     10 H31          0.6680     1.8110     0.1850 hc         1 KMT       0.077200
     11 H32          1.4390     0.2030    -0.0820 hc         1 KMT       0.077200
     12 H41         -0.4880    -0.9220     0.9770 h1         1 KMT       0.055200
     13 H42         -1.2750     0.6540     1.2490 h1         1 KMT       0.055200
     14 H51         -0.1280    -0.4170     4.9280 h1         1 KMT       0.047700
     15 H52         -1.5000     0.0870     3.8970 h1         1 KMT       0.047700
     16 H53         -0.7090    -1.4940     3.6240 h1         1 KMT       0.047700
@<TRIPOS>BOND
     1     1     2 1   
     2     1     3 1   
     3     1     4 1   
     4     4     5 2   
     5     4     6 1   
     6     6     7 1   
     7     6    10 1   
     8     6    11 1   
     9     7     8 1   
    10     7    12 1   
    11     7    13 1   
    12     8     9 1   
    13     9    14 1   
    14     9    15 1   
    15     9    16 1   
@<TRIPOS>SUBSTRUCTURE
     1 KMT         1 TEMP              0 ****  ****    0 ROOT
