@<TRIPOS>MOLECULE
KMT
   16    15     1     0     0
SMALL
abcg2


@<TRIPOS>ATOM
      1 C1           0.3740    -0.0220    -2.6180 c          1 KMT       0.649000
      2 O1          -0.3230    -0.0530    -3.6400 o          1 KMT      -0.694000
      3 O2           1.6120     0.0130    -2.5160 o          1 KMT      -0.694000
      4 C2          -0.4070    -0.0270    -1.2700 c          1 KMT       0.430100
      5 O5          -1.6150    -0.0450    -1.2540 o          1 KMT      -0.567100
      6 C3           0.4100    -0.0110    -0.0040 c3         1 KMT      -0.188400
      7 C4          -0.4330    -0.0160     1.2570 c3         1 KMT       0.094600
      8 S1           0.6650    -0.0070     2.7020 ss         1 KMT      -0.481000
      9 C5          -0.5670    -0.0140     4.0220 c3         1 KMT       0.042900
     10 H31          1.0670     0.8640    -0.0310 hc         1 KMT       0.077200
     11 H32          1.0850    -0.8730    -0.0240 hc         1 KMT       0.077200
     12 H41         -1.0680    -0.9030     1.3000 h1         1 KMT       0.055200
     13 H42         -1.0810     0.8610     1.2980 h1         1 KMT       0.055200
     14 H51         -0.0360    -0.0130     4.9730 h1         1 KMT       0.047700
     15 H52         -1.1990     0.8720     3.9750 h1         1 KMT       0.047700
     16 H53         -1.1910    -0.9060     3.9720 h1         1 KMT       0.047700
@<TRIPOS>BOND
     1     1     2 1   
     2     1     3 1   
     3     1     4 1   
     4     4     5 2   
     5     4     6 1   
     6     6     7 1   
     7     6    10 1   
     8     6    11 1   
     9     7     8 1   
    10     7    12 1   
    11     7    13 1   
    12     8     9 1   
    13     9    14 1   
    14     9    15 1   
    15     9    16 1   
@<TRIPOS>SUBSTRUCTURE
     1 KMT         1 TEMP              0 ****  ****    0 ROOT
