@<TRIPOS>MOLECULE
KMU
   46    49     1     0     0
SMALL
No Charge or Current Charge


@<TRIPOS>ATOM
      1 C1          -3.5680    -1.3270   -32.9610 ca         1 KMU       0.097000
      2 C2          -2.3570    -0.6310   -32.7250 ca         1 KMU      -0.070000
      3 C3          -2.3590     0.7640   -32.5000 ca         1 KMU      -0.126000
      4 C11         -5.9450     1.6370   -32.7540 c5         1 KMU      -0.047100
      5 C12         -5.6790     3.1250   -30.7770 ca         1 KMU      -0.097300
      6 C13         -5.5960     4.2170   -33.1440 c3         1 KMU       0.162800
      7 C15         -7.0020     3.5260   -30.4700 ca         1 KMU      -0.095000
      8 C16         -7.4290     3.6570   -29.1380 ca         1 KMU      -0.114500
      9 C17         -6.5440     3.3880   -28.0840 ca         1 KMU      -0.108000
     10 C18         -5.2310     2.9840   -28.3670 ca         1 KMU      -0.114500
     11 C19         -4.8020     2.8520   -29.6990 ca         1 KMU      -0.095000
     12 C20         -6.5370    -1.8320   -34.4930 ca         1 KMU      -0.128600
     13 C21         -7.7540    -2.5430   -34.6120 ca         1 KMU      -0.094000
     14 C22         -8.5630    -2.7560   -33.4850 ca         1 KMU      -0.113000
     15 C23         -8.1650    -2.2700   -32.2320 ca         1 KMU      -0.096000
     16 C24         -6.9520    -1.5750   -32.1030 ca         1 KMU      -0.101000
     17 C25         -5.6470    -1.5750   -35.6970 c          1 KMU       0.617700
     18 C4          -3.5880     1.4300   -32.5090 ca         1 KMU       0.131100
     19 C5          -4.7470     0.7520   -32.7340 ca         1 KMU      -0.134300
     20 C6          -4.8150    -0.6370   -32.9800 cp         1 KMU       0.025000
     21 C7          -6.1110    -1.3410   -33.2180 cp         1 KMU       0.010000
     22 Cl8         -3.4940    -3.0690   -33.2220 cl         1 KMU      -0.214000
     23 O9          -3.7660     2.7720   -32.3250 os         1 KMU      -0.304100
     24 C10         -5.2340     2.9760   -32.2560 c5         1 KMU       0.221300
     25 N14         -5.0470     5.5120   -32.6480 n8         1 KMU      -0.985200
     26 N26         -5.7650    -2.4310   -36.7370 nt         1 KMU      -0.603000
     27 O27         -4.8810    -0.6330   -35.8040 o          1 KMU      -0.592100
     28 H1          -1.4160    -1.1760   -32.7180 ha         1 KMU       0.129000
     29 H2          -1.4340     1.3070   -32.3250 ha         1 KMU       0.135000
     30 H3          -6.3600     1.7370   -33.7640 hc         1 KMU       0.074700
     31 H4          -6.7500     1.2940   -32.0950 hc         1 KMU       0.074700
     32 H5          -6.6890     4.3070   -33.2080 h1         1 KMU       0.040700
     33 H6          -5.2210     4.0470   -34.1630 h1         1 KMU       0.040700
     34 H7          -7.7130     3.7290   -31.2670 ha         1 KMU       0.119500
     35 H8          -8.4500     3.9660   -28.9230 ha         1 KMU       0.112500
     36 H9          -6.8750     3.4890   -27.0530 ha         1 KMU       0.112000
     37 H10         -4.5430     2.7710   -27.5520 ha         1 KMU       0.112500
     38 H11         -3.7790     2.5330   -29.8790 ha         1 KMU       0.119500
     39 H12         -8.0930    -2.9140   -35.5760 ha         1 KMU       0.116000
     40 H13         -9.5030    -3.2960   -33.5840 ha         1 KMU       0.116000
     41 H14         -8.7910    -2.4370   -31.3580 ha         1 KMU       0.117000
     42 H15         -6.6470    -1.2170   -31.1220 ha         1 KMU       0.125000
     43 H16         -5.4480     6.2820   -33.1970 hn         1 KMU       0.397500
     44 H17         -5.4010     5.6770   -31.6980 hn         1 KMU       0.397500
     45 H19         -5.2000    -2.2840   -37.5600 hn         1 KMU       0.314500
     46 H20         -6.3830    -3.2240   -36.6710 hn         1 KMU       0.314500
@<TRIPOS>BOND
     1     1     2 ar  
     2     1    20 ar  
     3     1    22 1   
     4     2     3 ar  
     5     2    28 1   
     6     3    18 ar  
     7     3    29 1   
     8     4    19 1   
     9     4    24 1   
    10     4    30 1   
    11     4    31 1   
    12     5     7 ar  
    13     5    11 ar  
    14     5    24 1   
    15     6    24 1   
    16     6    25 1   
    17     6    32 1   
    18     6    33 1   
    19     7     8 ar  
    20     7    34 1   
    21     8     9 ar  
    22     8    35 1   
    23     9    10 ar  
    24     9    36 1   
    25    10    11 ar  
    26    10    37 1   
    27    11    38 1   
    28    12    13 ar  
    29    12    17 1   
    30    12    21 ar  
    31    13    14 ar  
    32    13    39 1   
    33    14    15 ar  
    34    14    40 1   
    35    15    16 ar  
    36    15    41 1   
    37    16    21 ar  
    38    16    42 1   
    39    17    26 1   
    40    17    27 2   
    41    18    19 ar  
    42    18    23 1   
    43    19    20 ar  
    44    20    21 1   
    45    23    24 1   
    46    25    43 1   
    47    25    44 1   
    48    26    45 1   
    49    26    46 1   
@<TRIPOS>SUBSTRUCTURE
     1 KMU         1 TEMP              0 ****  ****    0 ROOT
