@<TRIPOS>MOLECULE
KMU
   46    49     1     0     0
SMALL
bcc


@<TRIPOS>ATOM
      1 C1          -3.6740    -1.3170   -32.9850 ca         1 KMU       0.005400
      2 C2          -2.4910    -0.6430   -32.7190 ca         1 KMU      -0.088000
      3 C3          -2.4940     0.7270   -32.4800 ca         1 KMU      -0.144000
      4 C11         -5.9940     1.7120   -32.8470 c5         1 KMU      -0.047100
      5 C12         -5.6610     3.1030   -30.7540 ca         1 KMU      -0.097300
      6 C13         -5.6320     4.2270   -33.0010 c3         1 KMU       0.162800
      7 C15         -6.9990     3.2430   -30.3860 ca         1 KMU      -0.113000
      8 C16         -7.3590     3.4080   -29.0580 ca         1 KMU      -0.132500
      9 C17         -6.3830     3.4380   -28.0690 ca         1 KMU      -0.126000
     10 C18         -5.0500     3.3090   -28.4270 ca         1 KMU      -0.132500
     11 C19         -4.6900     3.1490   -29.7600 ca         1 KMU      -0.113000
     12 C20         -6.5580    -1.8330   -34.5350 ca         1 KMU      -0.128600
     13 C21         -7.7700    -2.5000   -34.6910 ca         1 KMU      -0.112000
     14 C22         -8.6110    -2.7020   -33.6070 ca         1 KMU      -0.131000
     15 C23         -8.2400    -2.2430   -32.3530 ca         1 KMU      -0.114000
     16 C24         -7.0310    -1.5810   -32.1910 ca         1 KMU      -0.119000
     17 C25         -5.6950    -1.5600   -35.7300 c          1 KMU       0.684700
     18 C4          -3.7130     1.3770   -32.5260 ca         1 KMU       0.131100
     19 C5          -4.8940     0.7020   -32.7920 ca         1 KMU      -0.134300
     20 C6          -4.9050    -0.6590   -33.0300 cp         1 KMU       0.025000
     21 C7          -6.1840    -1.3640   -33.2730 cp         1 KMU       0.010000
     22 CL8         -3.6150    -3.0300   -33.2700 cl         1 KMU      -0.122400
     23 O9          -3.8940     2.6980   -32.3430 os         1 KMU      -0.280900
     24 C10         -5.3090     2.9530   -32.2250 c5         1 KMU       0.198100
     25 N14         -4.9880     5.3910   -32.4280 n8         1 KMU      -0.874800
     26 N26         -5.5420    -2.5940   -36.5710 nt         1 KMU      -0.670000
     27 O27         -5.2000    -0.4600   -35.9170 o          1 KMU      -0.592100
     28 H1          -1.5580    -1.1880   -32.6880 ha         1 KMU       0.147000
     29 H2          -1.5730     1.2530   -32.2700 ha         1 KMU       0.153000
     30 H3          -6.2880     1.8940   -33.8870 hc         1 KMU       0.074700
     31 H4          -6.8920     1.4170   -32.3060 hc         1 KMU       0.074700
     32 H5          -6.7270     4.3020   -33.0680 h1         1 KMU       0.040700
     33 H6          -5.2740     4.0930   -34.0250 h1         1 KMU       0.040700
     34 H7          -7.7770     3.2230   -31.1410 ha         1 KMU       0.137500
     35 H8          -8.4040     3.5130   -28.7950 ha         1 KMU       0.130500
     36 H9          -6.6620     3.5630   -27.0310 ha         1 KMU       0.130000
     37 H10         -4.2800     3.3340   -27.6660 ha         1 KMU       0.130500
     38 H11         -3.6430     3.0570   -30.0110 ha         1 KMU       0.137500
     39 H12         -8.0730    -2.8480   -35.6700 ha         1 KMU       0.134000
     40 H13         -9.5550    -3.2130   -33.7450 ha         1 KMU       0.134000
     41 H14         -8.8870    -2.3980   -31.5000 ha         1 KMU       0.135000
     42 H15         -6.7350    -1.2300   -31.2110 ha         1 KMU       0.143000
     43 H16         -5.0620     6.1640   -33.0750 hn         1 KMU       0.342300
     44 H17         -5.4810     5.6820   -31.5930 hn         1 KMU       0.342300
     45 H19         -4.9790    -2.4880   -37.4000 hn         1 KMU       0.314500
     46 H20         -5.8510    -3.5230   -36.3400 hn         1 KMU       0.314500
@<TRIPOS>BOND
     1     1     2 ar  
     2     1    20 ar  
     3     1    22 1   
     4     2     3 ar  
     5     2    28 1   
     6     3    18 ar  
     7     3    29 1   
     8     4    19 1   
     9     4    24 1   
    10     4    30 1   
    11     4    31 1   
    12     5     7 ar  
    13     5    11 ar  
    14     5    24 1   
    15     6    24 1   
    16     6    25 1   
    17     6    32 1   
    18     6    33 1   
    19     7     8 ar  
    20     7    34 1   
    21     8     9 ar  
    22     8    35 1   
    23     9    10 ar  
    24     9    36 1   
    25    10    11 ar  
    26    10    37 1   
    27    11    38 1   
    28    12    13 ar  
    29    12    17 1   
    30    12    21 ar  
    31    13    14 ar  
    32    13    39 1   
    33    14    15 ar  
    34    14    40 1   
    35    15    16 ar  
    36    15    41 1   
    37    16    21 ar  
    38    16    42 1   
    39    17    26 1   
    40    17    27 2   
    41    18    19 ar  
    42    18    23 1   
    43    19    20 ar  
    44    20    21 1   
    45    23    24 1   
    46    25    43 1   
    47    25    44 1   
    48    26    45 1   
    49    26    46 1   
@<TRIPOS>SUBSTRUCTURE
     1 KMU         1 TEMP              0 ****  ****    0 ROOT
