@<TRIPOS>MOLECULE
KMV
   42    43     1     0     0
SMALL
No Charge or Current Charge


@<TRIPOS>ATOM
      1 C02         -5.4400    -0.0960     0.0170 ca         1 KMV       0.599900
      2 C03         -5.6800    -1.4720     0.0120 ca         1 KMV      -0.233000
      3 C04         -4.5920    -2.3400     0.1910 ca         1 KMV       0.001700
      4 C05         -3.3260    -1.7580     0.3650 ca         1 KMV      -0.214000
      5 C06         -3.1990    -0.3560     0.3570 ca         1 KMV       0.396300
      6 C07         -4.7750    -3.8480     0.1900 c3         1 KMV      -0.053800
      7 C08         -1.8390     0.3010     0.5360 c3         1 KMV      -0.123700
      8 C09         -1.0250     0.3380    -0.7750 c3         1 KMV      -0.026100
      9 C11          0.3530     0.9660    -0.5770 ca         1 KMV      -0.093300
     10 C12          0.5370     2.3640    -0.6460 ca         1 KMV       0.138000
     11 C13          1.8160     2.9210    -0.4540 ca         1 KMV       0.131000
     12 C14          2.9170     2.0920    -0.1900 ca         1 KMV      -0.116000
     13 C15          2.7430     0.6990    -0.1170 ca         1 KMV       0.047000
     14 C16          1.4650     0.1410    -0.3090 ca         1 KMV      -0.082000
     15 C17          3.8650    -0.1510     0.1550 cg         1 KMV      -0.122000
     16 C18          4.8110    -0.8770     0.3900 c1         1 KMV      -0.106100
     17 C19          5.9720    -1.7170     0.6990 c3         1 KMV       0.239900
     18 C21          7.2270    -3.7260    -0.0700 c3         1 KMV       0.139100
     19 F12         -0.5170     3.1780    -0.8950 f          1 KMV      -0.156000
     20 F13          1.9940     4.2610    -0.5200 f          1 KMV      -0.161000
     21 N01         -4.2540     0.4710     0.1840 nb         1 KMV      -0.749000
     22 N02         -6.3980     0.8200    -0.1360 nv         1 KMV      -1.052900
     23 N20          6.0720    -2.8280    -0.2660 n7         1 KMV      -0.848400
     24 H1          -6.6850    -1.8560    -0.1320 ha         1 KMV       0.119000
     25 H2          -2.4460    -2.3810     0.5030 ha         1 KMV       0.121000
     26 H3          -4.6360    -4.2570    -0.8180 hc         1 KMV       0.046700
     27 H4          -4.0510    -4.3370     0.8530 hc         1 KMV       0.046700
     28 H5          -5.7780    -4.1290     0.5310 hc         1 KMV       0.046700
     29 H6          -1.9550     1.3240     0.9160 hc         1 KMV       0.057700
     30 H7          -1.2670    -0.2430     1.2970 hc         1 KMV       0.057700
     31 H8          -0.9210    -0.6830    -1.1620 hc         1 KMV       0.066200
     32 H9          -1.5910     0.8890    -1.5360 hc         1 KMV       0.066200
     33 H10          3.9000     2.5330    -0.0430 ha         1 KMV       0.140000
     34 H11          1.3360    -0.9380    -0.2470 ha         1 KMV       0.131000
     35 H12          6.8740    -1.0900     0.6670 h1         1 KMV       0.049200
     36 H13          5.8670    -2.0990     1.7240 h1         1 KMV       0.049200
     37 H14          8.1730    -3.1750    -0.1590 h1         1 KMV       0.032700
     38 H15          7.1940    -4.1950     0.9230 h1         1 KMV       0.032700
     39 H16          7.2270    -4.5250    -0.8230 h1         1 KMV       0.032700
     40 H17         -7.3490     0.5380     0.0710 hn         1 KMV       0.468000
     41 H18         -6.1360     1.7640     0.1180 hn         1 KMV       0.468000
     42 H19          6.1390    -2.4150    -1.2050 hn         1 KMV       0.413000
@<TRIPOS>BOND
     1     1     2 ar  
     2     1    21 ar  
     3     1    22 1   
     4     2     3 ar  
     5     2    24 1   
     6     3     4 ar  
     7     3     6 1   
     8     4     5 ar  
     9     4    25 1   
    10     5     7 1   
    11     5    21 ar  
    12     6    26 1   
    13     6    27 1   
    14     6    28 1   
    15     7     8 1   
    16     7    29 1   
    17     7    30 1   
    18     8     9 1   
    19     8    31 1   
    20     8    32 1   
    21     9    10 ar  
    22     9    14 ar  
    23    10    11 ar  
    24    10    19 1   
    25    11    12 ar  
    26    11    20 1   
    27    12    13 ar  
    28    12    33 1   
    29    13    14 ar  
    30    13    15 1   
    31    14    34 1   
    32    15    16 3   
    33    16    17 1   
    34    17    23 1   
    35    17    35 1   
    36    17    36 1   
    37    18    23 1   
    38    18    37 1   
    39    18    38 1   
    40    18    39 1   
    41    22    40 1   
    42    22    41 1   
    43    23    42 1   
@<TRIPOS>SUBSTRUCTURE
     1 KMV         1 TEMP              0 ****  ****    0 ROOT
