@<TRIPOS>MOLECULE
KMV
   42    43     1     0     0
SMALL
bcc


@<TRIPOS>ATOM
      1 C02         -5.2010    -0.1790    -0.6130 ca         1 KMV       0.665200
      2 C03         -5.6220    -1.4560    -0.2080 ca         1 KMV      -0.316300
      3 C04         -4.7530    -2.2530     0.5120 ca         1 KMV       0.001700
      4 C05         -3.4860    -1.7420     0.8100 ca         1 KMV      -0.297300
      5 C06         -3.1560    -0.4690     0.3770 ca         1 KMV       0.461600
      6 C07         -5.1460    -3.6340     0.9400 c3         1 KMV      -0.053800
      7 C08         -1.8040     0.1220     0.6580 c3         1 KMV      -0.123700
      8 C09         -0.9880     0.2980    -0.6300 c3         1 KMV      -0.026100
      9 C11          0.3590     0.9060    -0.3620 ca         1 KMV      -0.093300
     10 C12          0.5080     2.2750    -0.2060 ca         1 KMV       0.102900
     11 C13          1.7420     2.8370     0.0720 ca         1 KMV       0.095900
     12 C14          2.8660     2.0540     0.2040 ca         1 KMV      -0.134000
     13 C15          2.7440     0.6700     0.0550 ca         1 KMV       0.047000
     14 C16          1.4940     0.1150    -0.2250 ca         1 KMV      -0.100000
     15 C17          3.8920    -0.1650     0.1850 cg         1 KMV      -0.122000
     16 C18          4.8650    -0.8670     0.2940 c1         1 KMV      -0.106100
     17 C19          6.0490    -1.7100     0.4160 c3         1 KMV       0.239900
     18 C21          7.2820    -3.5430    -0.5230 c3         1 KMV       0.139100
     19 F12         -0.5510     3.0830    -0.3240 f          1 KMV      -0.120900
     20 F13          1.8300     4.1630     0.2100 f          1 KMV      -0.125900
     21 N01         -3.9950     0.2970    -0.3200 nb         1 KMV      -0.749000
     22 N02         -6.0150     0.6170    -1.3680 nv         1 KMV      -0.942500
     23 N20          6.1150    -2.6910    -0.6520 n7         1 KMV      -0.793200
     24 H1          -6.6170    -1.8060    -0.4580 ha         1 KMV       0.137000
     25 H2          -2.7760    -2.3260     1.3810 ha         1 KMV       0.139000
     26 H3          -4.9490    -4.3500     0.1390 hc         1 KMV       0.046700
     27 H4          -4.5810    -3.9580     1.8120 hc         1 KMV       0.046700
     28 H5          -6.2080    -3.6960     1.1740 hc         1 KMV       0.046700
     29 H6          -1.9320     1.0930     1.1440 hc         1 KMV       0.057700
     30 H7          -1.2550    -0.5150     1.3540 hc         1 KMV       0.057700
     31 H8          -0.8460    -0.6760    -1.1020 hc         1 KMV       0.066200
     32 H9          -1.5550     0.9090    -1.3340 hc         1 KMV       0.066200
     33 H10          3.8220     2.5110     0.4210 ha         1 KMV       0.158000
     34 H11          1.4010    -0.9570    -0.3400 ha         1 KMV       0.149000
     35 H12          6.9390    -1.0640     0.4690 h1         1 KMV       0.049200
     36 H13          6.0070    -2.2410     1.3730 h1         1 KMV       0.049200
     37 H14          8.2330    -2.9960    -0.4580 h1         1 KMV       0.032700
     38 H15          7.1960    -4.1570     0.3760 h1         1 KMV       0.032700
     39 H16          7.3390    -4.2140    -1.3790 h1         1 KMV       0.032700
     40 H17         -7.0030     0.4300    -1.3350 hn         1 KMV       0.412800
     41 H18         -5.7840     1.5970    -1.3810 hn         1 KMV       0.412800
     42 H19          6.1610    -2.2030    -1.5380 hn         1 KMV       0.357800
@<TRIPOS>BOND
     1     1     2 ar  
     2     1    21 ar  
     3     1    22 1   
     4     2     3 ar  
     5     2    24 1   
     6     3     4 ar  
     7     3     6 1   
     8     4     5 ar  
     9     4    25 1   
    10     5     7 1   
    11     5    21 ar  
    12     6    26 1   
    13     6    27 1   
    14     6    28 1   
    15     7     8 1   
    16     7    29 1   
    17     7    30 1   
    18     8     9 1   
    19     8    31 1   
    20     8    32 1   
    21     9    10 ar  
    22     9    14 ar  
    23    10    11 ar  
    24    10    19 1   
    25    11    12 ar  
    26    11    20 1   
    27    12    13 ar  
    28    12    33 1   
    29    13    14 ar  
    30    13    15 1   
    31    14    34 1   
    32    15    16 3   
    33    16    17 1   
    34    17    23 1   
    35    17    35 1   
    36    17    36 1   
    37    18    23 1   
    38    18    37 1   
    39    18    38 1   
    40    18    39 1   
    41    22    40 1   
    42    22    41 1   
    43    23    42 1   
@<TRIPOS>SUBSTRUCTURE
     1 KMV         1 TEMP              0 ****  ****    0 ROOT
