@<TRIPOS>MOLECULE
KMW
   31    32     1     0     0
SMALL
No Charge or Current Charge


@<TRIPOS>ATOM
      1 CAF        -11.5540    15.4920    -8.6370 ca         1 KMW      -0.170500
      2 CAE        -10.3720    15.5310    -7.8770 ca         1 KMW      -0.039000
      3 CAD         -9.1380    15.1320    -8.4470 ca         1 KMW      -0.184600
      4 CAB         -7.8470    15.1590    -7.6610 c          1 KMW       0.621700
      5 OAC         -6.7760    14.8220    -8.1400 o          1 KMW      -0.606100
      6 NAA         -7.8850    15.5730    -6.3760 nt         1 KMW      -0.605000
      7 CAS         -9.1220    14.7010    -9.7940 ca         1 KMW      -0.039000
      8 CAR        -10.3070    14.6650   -10.5490 ca         1 KMW      -0.170500
      9 CAG        -11.5240    15.0490    -9.9710 ca         1 KMW       0.153100
     10 OAH        -12.6670    15.0160   -10.7380 os         1 KMW      -0.252200
     11 CAI        -13.8940    14.6420   -10.2380 ca         1 KMW       0.088100
     12 CAN        -15.0440    15.3120   -10.6900 ca         1 KMW      -0.093000
     13 CAJ        -14.0100    13.5840    -9.3170 ca         1 KMW      -0.108000
     14 CAK        -15.2750    13.2150    -8.8350 ca         1 KMW      -0.109000
     15 CAL        -16.4250    13.8930    -9.2760 ca         1 KMW      -0.060000
     16 CAM        -16.3280    14.9490   -10.2110 ca         1 KMW      -0.142600
     17 CAO        -17.5860    15.6550   -10.6710 c          1 KMW       0.615700
     18 OAQ        -18.6970    15.3520   -10.2670 o          1 KMW      -0.599100
     19 NAP        -17.4690    16.6610   -11.5650 nt         1 KMW      -0.600000
     20 H1         -12.4910    15.8120    -8.1890 ha         1 KMW       0.132000
     21 H2         -10.4330    15.8760    -6.8480 ha         1 KMW       0.126000
     22 H3          -7.0290    15.5940    -5.8430 hn         1 KMW       0.313000
     23 H4          -8.7570    15.8550    -5.9570 hn         1 KMW       0.313000
     24 H5          -8.1890    14.3930   -10.2620 ha         1 KMW       0.126000
     25 H6         -10.2820    14.3350   -11.5840 ha         1 KMW       0.132000
     26 H7         -14.9180    16.1150   -11.4110 ha         1 KMW       0.130000
     27 H8         -13.1260    13.0480    -8.9800 ha         1 KMW       0.131000
     28 H9         -15.3670    12.4000    -8.1200 ha         1 KMW       0.124000
     29 H10        -17.3960    13.5900    -8.8890 ha         1 KMW       0.140000
     30 H11        -18.3010    17.1380   -11.8780 hn         1 KMW       0.315500
     31 H12        -16.5630    16.9300   -11.9140 hn         1 KMW       0.315500
@<TRIPOS>BOND
     1     1     2 ar  
     2     1     9 ar  
     3     1    20 1   
     4     2     3 ar  
     5     2    21 1   
     6     3     4 1   
     7     3     7 ar  
     8     4     5 2   
     9     4     6 1   
    10     6    22 1   
    11     6    23 1   
    12     7     8 ar  
    13     7    24 1   
    14     8     9 ar  
    15     8    25 1   
    16     9    10 1   
    17    10    11 1   
    18    11    12 ar  
    19    11    13 ar  
    20    12    16 ar  
    21    12    26 1   
    22    13    14 ar  
    23    13    27 1   
    24    14    15 ar  
    25    14    28 1   
    26    15    16 ar  
    27    15    29 1   
    28    16    17 1   
    29    17    18 2   
    30    17    19 1   
    31    19    30 1   
    32    19    31 1   
@<TRIPOS>SUBSTRUCTURE
     1 KMW         1 TEMP              0 ****  ****    0 ROOT
