@<TRIPOS>MOLECULE
KMW
   31    32     1     0     0
SMALL
bcc


@<TRIPOS>ATOM
      1 CAF        -11.6990    15.2130    -8.7170 ca         1 KMW      -0.188500
      2 CAE        -10.5680    15.5120    -7.9720 ca         1 KMW      -0.057000
      3 CAD         -9.2910    15.3360    -8.4950 ca         1 KMW      -0.184600
      4 CAB         -8.0460    15.6600    -7.7390 c          1 KMW       0.688700
      5 OAC         -6.9900    15.8710    -8.3230 o          1 KMW      -0.606100
      6 NAA         -8.1530    15.7070    -6.4020 nt         1 KMW      -0.672000
      7 CAS         -9.1690    14.8670    -9.8030 ca         1 KMW      -0.057000
      8 CAR        -10.2840    14.5500   -10.5530 ca         1 KMW      -0.188500
      9 CAG        -11.5540    14.7230   -10.0090 ca         1 KMW       0.153100
     10 OAH        -12.6030    14.4200   -10.8170 os         1 KMW      -0.252200
     11 CAI        -13.8520    14.2690   -10.2710 ca         1 KMW       0.088100
     12 CAN        -14.8200    15.2140   -10.5660 ca         1 KMW      -0.111000
     13 CAJ        -14.1420    13.1670    -9.4790 ca         1 KMW      -0.126000
     14 CAK        -15.4230    13.0250    -8.9680 ca         1 KMW      -0.127000
     15 CAL        -16.4000    13.9700    -9.2440 ca         1 KMW      -0.078000
     16 CAM        -16.1090    15.0590   -10.0590 ca         1 KMW      -0.142600
     17 CAO        -17.1940    16.0540   -10.3330 c          1 KMW       0.682700
     18 OAQ        -18.1170    16.2090    -9.5460 o          1 KMW      -0.599100
     19 NAP        -17.0810    16.7480   -11.4750 nt         1 KMW      -0.667000
     20 H1         -12.6760    15.3780    -8.2830 ha         1 KMW       0.150000
     21 H2         -10.7150    15.9120    -6.9760 ha         1 KMW       0.144000
     22 H3          -7.3400    15.9120    -5.8440 hn         1 KMW       0.313000
     23 H4          -8.9720    15.3930    -5.9110 hn         1 KMW       0.313000
     24 H5          -8.1870    14.7300   -10.2360 ha         1 KMW       0.144000
     25 H6         -10.1760    14.1710   -11.5610 ha         1 KMW       0.150000
     26 H7         -14.5490    16.0690   -11.1730 ha         1 KMW       0.148000
     27 H8         -13.3790    12.4300    -9.2660 ha         1 KMW       0.149000
     28 H9         -15.6600    12.1680    -8.3520 ha         1 KMW       0.142000
     29 H10        -17.3950    13.8500    -8.8380 ha         1 KMW       0.158000
     30 H11        -17.8010    17.4060   -11.7290 hn         1 KMW       0.315500
     31 H12        -16.4260    16.4970   -12.1950 hn         1 KMW       0.315500
@<TRIPOS>BOND
     1     1     2 ar  
     2     1     9 ar  
     3     1    20 1   
     4     2     3 ar  
     5     2    21 1   
     6     3     4 1   
     7     3     7 ar  
     8     4     5 2   
     9     4     6 1   
    10     6    22 1   
    11     6    23 1   
    12     7     8 ar  
    13     7    24 1   
    14     8     9 ar  
    15     8    25 1   
    16     9    10 1   
    17    10    11 1   
    18    11    12 ar  
    19    11    13 ar  
    20    12    16 ar  
    21    12    26 1   
    22    13    14 ar  
    23    13    27 1   
    24    14    15 ar  
    25    14    28 1   
    26    15    16 ar  
    27    15    29 1   
    28    16    17 1   
    29    17    18 2   
    30    17    19 1   
    31    19    30 1   
    32    19    31 1   
@<TRIPOS>SUBSTRUCTURE
     1 KMW         1 TEMP              0 ****  ****    0 ROOT
