@<TRIPOS>MOLECULE
KMX
   43    45     1     0     0
SMALL
abcg2


@<TRIPOS>ATOM
      1 N1           6.6810    -2.8580    23.9350 n3         1 KMX      -0.712600
      2 C4           6.3130    -2.0910    25.1270 c3         1 KMX       0.245100
      3 C5           5.6420    -2.9270    26.1730 cc         1 KMX      -0.230300
      4 C6           6.1540    -3.9640    26.8950 cd         1 KMX       0.296900
      5 C7           4.1110    -4.0230    27.7500 cc         1 KMX       0.448700
      6 C8           2.9710    -4.4110    28.6450 c3         1 KMX      -0.062400
      7 C10          3.7430    -3.8990    30.9960 ca         1 KMX      -0.097000
      8 C13          2.1140    -1.6530    31.1300 ca         1 KMX      -0.111000
      9 C15          5.5130    -3.3920    23.2380 c6         1 KMX       0.142300
     10 S            3.9860    -2.7090    26.6220 ss         1 KMX      -0.062400
     11 N            6.7880    -3.4400    21.1480 n          1 KMX      -0.420800
     12 N2           5.2930    -4.5740    27.7760 nd         1 KMX      -0.645000
     13 C11          3.7380    -3.1120    32.1420 ca         1 KMX      -0.111000
     14 C1           6.5270    -3.3580    19.8220 c          1 KMX       0.602100
     15 C2           7.9350    -2.8420    21.8220 c6         1 KMX       0.101000
     16 C16          5.9360    -4.2230    22.0370 c6         1 KMX       0.101000
     17 C9           2.9350    -3.5730    29.9070 ca         1 KMX      -0.090300
     18 C12          2.9240    -1.9840    32.2120 ca         1 KMX      -0.106000
     19 C14          2.1210    -2.4430    29.9850 ca         1 KMX      -0.097000
     20 C            7.4650    -2.5330    18.9680 c3         1 KMX      -0.172100
     21 O            5.5560    -3.9280    19.3120 o          1 KMX      -0.613100
     22 C3           7.4770    -2.0350    23.0290 c6         1 KMX       0.142300
     23 H2           7.2330    -1.6720    25.5410 h1         1 KMX       0.045700
     24 H3           5.6650    -1.2380    24.8670 h1         1 KMX       0.045700
     25 H4           7.1700    -4.3240    26.8060 h4         1 KMX       0.048100
     26 H5           2.0290    -4.3040    28.1070 hc         1 KMX       0.070200
     27 H6           3.0980    -5.4640    28.8990 hc         1 KMX       0.070200
     28 H8           1.4740    -0.7800    31.1780 ha         1 KMX       0.113500
     29 H9           4.8470    -2.5770    22.9040 h1         1 KMX       0.043200
     30 H10          4.9470    -4.0240    23.9220 h1         1 KMX       0.043200
     31 H11          4.3670    -3.3790    32.9820 ha         1 KMX       0.113500
     32 H12          8.6080    -3.6410    22.1520 h1         1 KMX       0.060950
     33 H13          8.4810    -2.1960    21.1430 h1         1 KMX       0.060950
     34 H14          5.0670    -4.5540    21.4770 h1         1 KMX       0.060950
     35 H15          6.4920    -5.1030    22.3780 h1         1 KMX       0.060950
     36 H16          2.9180    -1.3710    33.1040 ha         1 KMX       0.113000
     37 H17          1.4880    -2.1820    29.1450 ha         1 KMX       0.116000
     38 H18          7.1190    -2.5870    17.9390 hc         1 KMX       0.060700
     39 H19          7.4760    -1.4900    19.2870 hc         1 KMX       0.060700
     40 H20          8.4890    -2.9080    19.0210 hc         1 KMX       0.060700
     41 H21          8.3540    -1.6670    23.5650 h1         1 KMX       0.043200
     42 H22          6.9030    -1.1600    22.6790 h1         1 KMX       0.043200
     43 H7           4.3780    -4.7750    30.9450 ha         1 KMX       0.116000
@<TRIPOS>BOND
     1     1     2 1   
     2     1     9 1   
     3     1    22 1   
     4     2     3 1   
     5     2    23 1   
     6     2    24 1   
     7     3     4 2   
     8     3    10 1   
     9     4    12 1   
    10     4    25 1   
    11     5     6 1   
    12     5    10 1   
    13     5    12 2   
    14     6    17 1   
    15     6    26 1   
    16     6    27 1   
    17     7    13 ar  
    18     7    17 ar  
    19     7    43 1   
    20     8    18 ar  
    21     8    19 ar  
    22     8    28 1   
    23     9    16 1   
    24     9    29 1   
    25     9    30 1   
    26    11    14 1   
    27    11    15 1   
    28    11    16 1   
    29    13    18 ar  
    30    13    31 1   
    31    14    20 1   
    32    14    21 2   
    33    15    22 1   
    34    15    32 1   
    35    15    33 1   
    36    16    34 1   
    37    16    35 1   
    38    17    19 ar  
    39    18    36 1   
    40    19    37 1   
    41    20    38 1   
    42    20    39 1   
    43    20    40 1   
    44    22    41 1   
    45    22    42 1   
@<TRIPOS>SUBSTRUCTURE
     1 KMX         1 TEMP              0 ****  ****    0 ROOT
