@<TRIPOS>MOLECULE
KMX
   43    45     1     0     0
SMALL
No Charge or Current Charge


@<TRIPOS>ATOM
      1 N1           6.6040    -2.7070    23.9760 n3         1 KMX      -0.712600
      2 C4           6.3970    -2.0810    25.3000 c3         1 KMX       0.245100
      3 C5           5.7030    -3.0000    26.2600 cc         1 KMX      -0.230300
      4 C6           6.1460    -4.2260    26.7010 cd         1 KMX       0.296900
      5 C7           4.2260    -4.1170    27.8090 cc         1 KMX       0.448700
      6 C8           3.1060    -4.5220    28.7290 c3         1 KMX      -0.062400
      7 C10          3.8720    -3.8280    31.0510 ca         1 KMX      -0.097000
      8 C13          1.9510    -1.7820    31.1580 ca         1 KMX      -0.111000
      9 C15          5.3310    -3.0170    23.2730 c6         1 KMX       0.142300
     10 S            4.1610    -2.5940    26.9590 ss         1 KMX      -0.062400
     11 N            6.5930    -3.1640    21.0340 n          1 KMX      -0.420800
     12 N2           5.2980    -4.8690    27.5930 nd         1 KMX      -0.645000
     13 C11          3.7840    -3.0060    32.1870 ca         1 KMX      -0.111000
     14 C1           6.6940    -3.6160    19.6990 c          1 KMX       0.602100
     15 C2           7.7770    -2.5780    21.7410 c6         1 KMX       0.101000
     16 C16          5.5640    -3.7700    21.9360 c6         1 KMX       0.101000
     17 C9           3.0000    -3.6330    29.9630 ca         1 KMX      -0.090300
     18 C12          2.8230    -1.9820    32.2420 ca         1 KMX      -0.106000
     19 C14          2.0390    -2.6040    30.0220 ca         1 KMX      -0.097000
     20 C            7.7720    -3.0150    18.7930 c3         1 KMX      -0.172100
     21 O            5.8990    -4.4300    19.2470 o          1 KMX      -0.613100
     22 C3           7.4570    -1.8760    23.0900 c6         1 KMX       0.142300
     23 H2           7.3660    -1.8060    25.7380 h1         1 KMX       0.045700
     24 H3           5.8150    -1.1540    25.1980 h1         1 KMX       0.045700
     25 H4           7.0750    -4.7000    26.4080 h4         1 KMX       0.048100
     26 H5           2.1660    -4.5070    28.1660 hc         1 KMX       0.070200
     27 H6           3.2460    -5.5650    29.0370 hc         1 KMX       0.070200
     28 H8           1.2080    -0.9880    31.1990 ha         1 KMX       0.113500
     29 H9           4.7820    -2.0870    23.0600 h1         1 KMX       0.043200
     30 H10          4.6760    -3.6360    23.9030 h1         1 KMX       0.043200
     31 H11          4.4610    -3.1610    33.0240 ha         1 KMX       0.113500
     32 H12          8.4960    -3.3860    21.9330 h1         1 KMX       0.060950
     33 H13          8.2790    -1.8430    21.0980 h1         1 KMX       0.060950
     34 H14          4.6030    -3.8370    21.4060 h1         1 KMX       0.060950
     35 H15          5.8750    -4.7980    22.1690 h1         1 KMX       0.060950
     36 H16          2.7550    -1.3450    33.1210 ha         1 KMX       0.113000
     37 H17          1.3600    -2.4390    29.1870 ha         1 KMX       0.116000
     38 H18          7.6910    -3.3620    17.7570 hc         1 KMX       0.060700
     39 H19          7.7290    -1.9220    18.8560 hc         1 KMX       0.060700
     40 H20          8.7600    -3.2430    19.2080 hc         1 KMX       0.060700
     41 H21          8.4070    -1.6340    23.5880 h1         1 KMX       0.043200
     42 H22          6.9570    -0.9200    22.8760 h1         1 KMX       0.043200
     43 H7           4.6210    -4.6170    31.0150 ha         1 KMX       0.116000
@<TRIPOS>BOND
     1     1     2 1   
     2     1     9 1   
     3     1    22 1   
     4     2     3 1   
     5     2    23 1   
     6     2    24 1   
     7     3     4 2   
     8     3    10 1   
     9     4    12 1   
    10     4    25 1   
    11     5     6 1   
    12     5    10 1   
    13     5    12 2   
    14     6    17 1   
    15     6    26 1   
    16     6    27 1   
    17     7    13 ar  
    18     7    17 ar  
    19     7    43 1   
    20     8    18 ar  
    21     8    19 ar  
    22     8    28 1   
    23     9    16 1   
    24     9    29 1   
    25     9    30 1   
    26    11    14 1   
    27    11    15 1   
    28    11    16 1   
    29    13    18 ar  
    30    13    31 1   
    31    14    20 1   
    32    14    21 2   
    33    15    22 1   
    34    15    32 1   
    35    15    33 1   
    36    16    34 1   
    37    16    35 1   
    38    17    19 ar  
    39    18    36 1   
    40    19    37 1   
    41    20    38 1   
    42    20    39 1   
    43    20    40 1   
    44    22    41 1   
    45    22    42 1   
@<TRIPOS>SUBSTRUCTURE
     1 KMX         1 TEMP              0 ****  ****    0 ROOT
