@<TRIPOS>MOLECULE
KN2
   28    30     1     0     0
SMALL
abcg2


@<TRIPOS>ATOM
      1 OAC          2.2780     2.2970    -0.0600 oh         1 KN2      -0.551100
      2 CAN          2.4240     0.9680    -0.0160 ca         1 KN2       0.231100
      3 CAH          3.7260     0.4770    -0.0760 ca         1 KN2      -0.270000
      4 CAL          3.9730    -0.8870    -0.0250 ca         1 KN2       0.193100
      5 OAA          5.2160    -1.3950    -0.0760 oh         1 KN2      -0.529100
      6 CAD          2.9080    -1.7810     0.0910 ca         1 KN2      -0.198000
      7 CAE          1.6210    -1.2850     0.1440 ca         1 KN2      -0.014000
      8 CAO          1.3300     0.0800     0.0850 ca         1 KN2      -0.249900
      9 CAP         -0.0430     0.5800     0.1240 cc         1 KN2       0.471500
     10 CAR         -1.3050    -0.1010     0.0720 ca         1 KN2      -0.257900
     11 CAG         -1.7640    -1.4220    -0.0400 ca         1 KN2       0.012000
     12 CAF         -3.1150    -1.6650    -0.0690 ca         1 KN2      -0.236000
     13 CAM         -4.0530    -0.6090     0.0090 ca         1 KN2       0.181100
     14 OAB         -5.3760    -0.8540    -0.0210 oh         1 KN2      -0.531100
     15 CAI         -3.6420     0.7030     0.1110 ca         1 KN2      -0.190000
     16 CAQ         -2.2640     0.9290     0.1380 ca         1 KN2       0.008800
     17 N1K         -1.5750     2.0850     0.2140 na         1 KN2      -0.049400
     18 N1J         -0.2580     1.8770     0.2070 nd         1 KN2      -0.601100
     19 HOAC         1.3240     2.5190     0.0370 ho         1 KN2       0.513000
     20 HAH          4.5450     1.1840    -0.1580 ha         1 KN2       0.129000
     21 HOAA         5.8680    -0.6880    -0.1480 ho         1 KN2       0.469000
     22 HAD          3.0880    -2.8460     0.1410 ha         1 KN2       0.131000
     23 HAE          0.8170    -1.9990     0.2430 ha         1 KN2       0.111000
     24 HAG         -1.0860    -2.2600    -0.1130 ha         1 KN2       0.120000
     25 HAF         -3.4700    -2.6860    -0.1570 ha         1 KN2       0.116000
     26 HOAB        -5.5430    -1.7990    -0.1030 ho         1 KN2       0.470000
     27 HAI         -4.3560     1.5140     0.1630 ha         1 KN2       0.137000
     28 HN1K        -1.9320     3.0250     0.2740 hn         1 KN2       0.382000
@<TRIPOS>BOND
     1     1     2 1   
     2     1    19 1   
     3     2     3 ar  
     4     2     8 ar  
     5     3     4 ar  
     6     3    20 1   
     7     4     5 1   
     8     4     6 ar  
     9     5    21 1   
    10     6     7 ar  
    11     6    22 1   
    12     7     8 ar  
    13     7    23 1   
    14     8     9 1   
    15     9    10 1   
    16     9    18 2   
    17    10    11 ar  
    18    10    16 ar  
    19    11    12 ar  
    20    11    24 1   
    21    12    13 ar  
    22    12    25 1   
    23    13    14 1   
    24    13    15 ar  
    25    14    26 1   
    26    15    16 ar  
    27    15    27 1   
    28    16    17 1   
    29    17    18 1   
    30    17    28 1   
@<TRIPOS>SUBSTRUCTURE
     1 KN2         1 TEMP              0 ****  ****    0 ROOT
