@<TRIPOS>MOLECULE
KN2
   28    30     1     0     0
SMALL
No Charge or Current Charge


@<TRIPOS>ATOM
      1 OAC          2.2070     2.1940    -0.6680 oh         1 KN2      -0.551100
      2 CAN          2.3830     0.8990    -0.2960 ca         1 KN2       0.231100
      3 CAH          3.6620     0.3390    -0.4040 ca         1 KN2      -0.270000
      4 CAL          3.8830    -0.9810     0.0000 ca         1 KN2       0.193100
      5 OAA          5.1240    -1.5270    -0.0960 oh         1 KN2      -0.529100
      6 CAD          2.8290    -1.7360     0.5270 ca         1 KN2      -0.198000
      7 CAE          1.5440    -1.1800     0.6310 ca         1 KN2      -0.014000
      8 CAO          1.2960     0.1370     0.1840 ca         1 KN2      -0.249900
      9 CAP         -0.0420     0.7230     0.3180 cc         1 KN2       0.471500
     10 CAR         -1.2940     0.0190     0.1380 ca         1 KN2      -0.257900
     11 CAG         -1.6100    -1.2880    -0.2700 ca         1 KN2       0.012000
     12 CAF         -2.9770    -1.6240    -0.3860 ca         1 KN2      -0.236000
     13 CAM         -3.9770    -0.6600    -0.1240 ca         1 KN2       0.181100
     14 OAB         -5.2900    -0.9930    -0.2480 oh         1 KN2      -0.531100
     15 CAI         -3.6250     0.6520     0.2420 ca         1 KN2      -0.190000
     16 CAQ         -2.2630     0.9490     0.3560 ca         1 KN2       0.008800
     17 N1K         -1.6340     2.1440     0.6300 na         1 KN2      -0.049400
     18 N1J         -0.2370     2.0280     0.5830 nd         1 KN2      -0.601100
     19 HOAC         1.3120     2.4470    -0.3270 ho         1 KN2       0.513000
     20 HAH          4.4780     0.9420    -0.7930 ha         1 KN2       0.129000
     21 HOAA         5.7250    -0.8530    -0.4790 ho         1 KN2       0.469000
     22 HAD          3.0090    -2.7530     0.8650 ha         1 KN2       0.131000
     23 HAE          0.7500    -1.7730     1.0780 ha         1 KN2       0.111000
     24 HAG         -0.8400    -2.0200    -0.5060 ha         1 KN2       0.120000
     25 HAF         -3.2510    -2.6300    -0.6910 ha         1 KN2       0.116000
     26 HOAB        -5.3420    -1.9360    -0.5120 ho         1 KN2       0.470000
     27 HAI         -4.3860     1.4080     0.4170 ha         1 KN2       0.137000
     28 HN1K        -2.0960     3.0320     0.8250 hn         1 KN2       0.382000
@<TRIPOS>BOND
     1     1     2 1   
     2     1    19 1   
     3     2     3 ar  
     4     2     8 ar  
     5     3     4 ar  
     6     3    20 1   
     7     4     5 1   
     8     4     6 ar  
     9     5    21 1   
    10     6     7 ar  
    11     6    22 1   
    12     7     8 ar  
    13     7    23 1   
    14     8     9 1   
    15     9    10 1   
    16     9    18 2   
    17    10    11 ar  
    18    10    16 ar  
    19    11    12 ar  
    20    11    24 1   
    21    12    13 ar  
    22    12    25 1   
    23    13    14 1   
    24    13    15 ar  
    25    14    26 1   
    26    15    16 ar  
    27    15    27 1   
    28    16    17 1   
    29    17    18 1   
    30    17    28 1   
@<TRIPOS>SUBSTRUCTURE
     1 KN2         1 TEMP              0 ****  ****    0 ROOT
