@<TRIPOS>MOLECULE
KN4
   53    55     1     0     0
SMALL
No Charge or Current Charge


@<TRIPOS>ATOM
      1 C12         -0.3280     2.6750    -0.5290 ca         1 KN4       0.129000
      2 C13          0.8850     3.3540    -0.3040 ca         1 KN4       0.134000
      3 C11         -0.4020     1.2770    -0.3520 ca         1 KN4      -0.090300
      4 C14          2.0280     2.6470     0.0990 ca         1 KN4      -0.132000
      5 C23          7.2060    -2.1600    -0.8870 c5         1 KN4      -0.086400
      6 C15          1.9660     1.2530     0.2830 ca         1 KN4      -0.062300
      7 C17          3.2020     0.4770     0.7170 c3         1 KN4      -0.030100
      8 C18          3.9480    -0.1410    -0.4890 c3         1 KN4      -0.062400
      9 C02         -6.1170    -0.2520    -0.0050 ca         1 KN4       0.601900
     10 C03         -6.2310    -1.6420     0.0560 ca         1 KN4      -0.233000
     11 C04         -5.0830    -2.3930     0.3480 ca         1 KN4       0.000700
     12 C05         -3.8870    -1.6880     0.5530 ca         1 KN4      -0.217000
     13 C06         -3.8860    -0.2820     0.4640 ca         1 KN4       0.397300
     14 C09         -1.7050     0.5170    -0.5840 c3         1 KN4      -0.025100
     15 C16          0.7510     0.5760     0.0560 ca         1 KN4      -0.102000
     16 C22          6.4850    -2.8420     0.3100 c5         1 KN4       0.171800
     17 C24          6.2030    -1.0630    -1.3520 c5         1 KN4      -0.093400
     18 C25          5.2440    -0.9250    -0.1400 c5         1 KN4       0.185500
     19 F12         -1.4250     3.3720    -0.9130 f          1 KN4      -0.161000
     20 F13          0.9590     4.6940    -0.4750 f          1 KN4      -0.165000
     21 N01         -4.9980     0.4320     0.1830 nb         1 KN4      -0.750000
     22 N02         -7.1390     0.5610    -0.2820 nv         1 KN4      -1.055900
     23 N21          5.0880    -2.3690     0.1750 n3         1 KN4      -0.747600
     24 H1           2.9590     3.1830     0.2660 ha         1 KN4       0.132000
     25 H2           8.1660    -1.7340    -0.5740 hc         1 KN4       0.051700
     26 H3           7.4160    -2.8730    -1.6920 hc         1 KN4       0.051700
     27 H4           3.8900     1.1370     1.2610 hc         1 KN4       0.054200
     28 H5           2.9130    -0.3030     1.4280 hc         1 KN4       0.054200
     29 H6           3.2620    -0.7890    -1.0490 hc         1 KN4       0.045200
     30 H7           4.2060     0.6820    -1.1660 hc         1 KN4       0.045200
     31 H8          -7.1880    -2.1250    -0.1160 ha         1 KN4       0.118000
     32 H9          -2.9650    -2.2180     0.7770 ha         1 KN4       0.121000
     33 H10         -4.8970    -4.3600    -0.5430 hc         1 KN4       0.046367
     34 H11         -4.4050    -4.2920     1.1580 hc         1 KN4       0.046367
     35 H12         -6.1220    -4.2630     0.7340 hc         1 KN4       0.046367
     36 H15         -2.2610     0.9560    -1.4210 hc         1 KN4       0.061700
     37 H16         -1.4890    -0.5180    -0.8800 hc         1 KN4       0.061700
     38 H17          0.7050    -0.5020     0.1980 ha         1 KN4       0.123000
     39 H18          6.5600    -3.9370     0.2680 h1         1 KN4       0.035200
     40 H19          6.9230    -2.5110     1.2630 h1         1 KN4       0.035200
     41 H20          6.7020    -0.1190    -1.5960 hc         1 KN4       0.048700
     42 H21          5.6620    -1.3840    -2.2500 hc         1 KN4       0.048700
     43 H22          5.7540    -0.3950     0.6780 h1         1 KN4       0.036700
     44 H26         -7.9310     0.1620    -0.7720 hn         1 KN4       0.469000
     45 H27         -6.8810     1.5090    -0.5270 hn         1 KN4       0.469000
     46 C26          4.2120    -2.7280     1.3100 c3         1 KN4       0.166100
     47 C08         -2.6020     0.5060     0.6720 c3         1 KN4      -0.124700
     48 C07         -5.1300    -3.9100     0.4290 c3         1 KN4      -0.053800
     49 H13         -2.8300     1.5400     0.9600 hc         1 KN4       0.059700
     50 H14         -2.0400     0.0750     1.5090 hc         1 KN4       0.059700
     51 H23          4.5100    -2.1920     2.2210 h1         1 KN4       0.028033
     52 H24          3.1650    -2.4880     1.0840 h1         1 KN4       0.028033
     53 H25          4.2670    -3.8060     1.5110 h1         1 KN4       0.028033
@<TRIPOS>BOND
     1     1     2 ar  
     2     1     3 ar  
     3     1    19 1   
     4     2     4 ar  
     5     2    20 1   
     6     3    14 1   
     7     3    15 ar  
     8     4     6 ar  
     9     4    24 1   
    10     5    16 1   
    11     5    17 1   
    12     5    25 1   
    13     5    26 1   
    14     6     7 1   
    15     6    15 ar  
    16     7     8 1   
    17     7    27 1   
    18     7    28 1   
    19     8    18 1   
    20     8    29 1   
    21     8    30 1   
    22     9    10 ar  
    23     9    21 ar  
    24     9    22 1   
    25    10    11 ar  
    26    10    31 1   
    27    11    12 ar  
    28    11    48 1   
    29    12    13 ar  
    30    12    32 1   
    31    13    21 ar  
    32    13    47 1   
    33    14    36 1   
    34    14    37 1   
    35    14    47 1   
    36    15    38 1   
    37    16    23 1   
    38    16    39 1   
    39    16    40 1   
    40    17    18 1   
    41    17    41 1   
    42    17    42 1   
    43    18    23 1   
    44    18    43 1   
    45    22    44 1   
    46    22    45 1   
    47    23    46 1   
    48    33    48 1   
    49    34    48 1   
    50    35    48 1   
    51    46    51 1   
    52    46    52 1   
    53    46    53 1   
    54    47    49 1   
    55    47    50 1   
@<TRIPOS>SUBSTRUCTURE
     1 KN4         1 TEMP              0 ****  ****    0 ROOT
