@<TRIPOS>MOLECULE
KN4
   53    55     1     0     0
SMALL
abcg2


@<TRIPOS>ATOM
      1 C12         -0.3520     2.6450     0.0210 ca         1 KN4       0.129000
      2 C13          0.7920     3.3190     0.4080 ca         1 KN4       0.134000
      3 C11         -0.3660     1.2640    -0.0830 ca         1 KN4      -0.090300
      4 C14          1.9520     2.6360     0.7070 ca         1 KN4      -0.132000
      5 C23          5.5450    -2.5310    -1.6160 c5         1 KN4      -0.086400
      6 C15          1.9710     1.2470     0.6200 ca         1 KN4      -0.062300
      7 C17          3.2300     0.4750     0.8940 c3         1 KN4      -0.030100
      8 C18          3.9710     0.1210    -0.3940 c3         1 KN4      -0.062400
      9 C02         -5.7300    -0.5200    -0.8280 ca         1 KN4       0.601900
     10 C03         -5.9610    -1.8590    -0.4630 ca         1 KN4      -0.233000
     11 C04         -5.0430    -2.5030     0.3400 ca         1 KN4       0.000700
     12 C05         -3.9160    -1.7860     0.7590 ca         1 KN4      -0.217000
     13 C06         -3.7660    -0.4740     0.3500 ca         1 KN4       0.397300
     14 C09         -1.6140     0.5230    -0.4650 c3         1 KN4      -0.025100
     15 C16          0.8110     0.5870     0.2250 ca         1 KN4      -0.102000
     16 C22          5.6440    -2.9840    -0.1700 c5         1 KN4       0.171800
     17 C24          5.9240    -1.0580    -1.4950 c5         1 KN4      -0.093400
     18 C25          5.2830    -0.6270    -0.1660 c5         1 KN4       0.185500
     19 F12         -1.4580     3.3540    -0.2510 f          1 KN4      -0.161000
     20 F13          0.7550     4.6550     0.4950 f          1 KN4      -0.165000
     21 N01         -4.6540     0.1480    -0.4290 nb         1 KN4      -0.750000
     22 N02         -6.6430     0.1620    -1.5780 nv         1 KN4      -1.055900
     23 N21          5.0760    -1.8760     0.5800 n3         1 KN4      -0.747600
     24 H1           2.8340     3.1880     1.0090 ha         1 KN4       0.132000
     25 H2           6.2030    -3.0930    -2.2800 hc         1 KN4       0.051700
     26 H3           4.5230    -2.6440    -1.9840 hc         1 KN4       0.051700
     27 H4           3.8880     1.0580     1.5450 hc         1 KN4       0.054200
     28 H5           2.9840    -0.4440     1.4300 hc         1 KN4       0.054200
     29 H6           3.3170    -0.4830    -1.0310 hc         1 KN4       0.045200
     30 H7           4.1890     1.0400    -0.9480 hc         1 KN4       0.045200
     31 H8          -6.8510    -2.3700    -0.8100 ha         1 KN4       0.118000
     32 H9          -3.1700    -2.2530     1.3890 ha         1 KN4       0.121000
     33 H10         -4.5070    -4.5730     0.2340 hc         1 KN4       0.046367
     34 H11         -5.0640    -4.0610     1.8160 hc         1 KN4       0.046367
     35 H12         -6.2270    -4.2980     0.5060 hc         1 KN4       0.046367
     36 H15         -2.1520     1.0440    -1.2600 hc         1 KN4       0.061700
     37 H16         -1.3320    -0.4530    -0.8660 hc         1 KN4       0.061700
     38 H17          0.8160    -0.4950     0.1520 ha         1 KN4       0.123000
     39 H18          5.1050    -3.9130     0.0340 h1         1 KN4       0.035200
     40 H19          6.7020    -3.1610     0.0880 h1         1 KN4       0.035200
     41 H20          7.0110    -0.9630    -1.4380 hc         1 KN4       0.048700
     42 H21          5.5890    -0.4500    -2.3370 hc         1 KN4       0.048700
     43 H22          5.9660     0.0360     0.3840 h1         1 KN4       0.036700
     44 H26         -7.2890    -0.3760    -2.1310 hn         1 KN4       0.469000
     45 H27         -6.3120     0.9990    -2.0290 hn         1 KN4       0.469000
     46 C26          5.4910    -1.8460     1.9610 c3         1 KN4       0.166100
     47 C08         -2.5520     0.3230     0.7340 c3         1 KN4      -0.124700
     48 C07         -5.2290    -3.9330     0.7460 c3         1 KN4      -0.053800
     49 H13         -2.8650     1.2960     1.1200 hc         1 KN4       0.059700
     50 H14         -2.0100    -0.1830     1.5350 hc         1 KN4       0.059700
     51 H23          6.5760    -1.7010     2.0860 h1         1 KN4       0.028033
     52 H24          4.9860    -1.0450     2.5020 h1         1 KN4       0.028033
     53 H25          5.2250    -2.7840     2.4520 h1         1 KN4       0.028033
@<TRIPOS>BOND
     1     1     2 ar  
     2     1     3 ar  
     3     1    19 1   
     4     2     4 ar  
     5     2    20 1   
     6     3    14 1   
     7     3    15 ar  
     8     4     6 ar  
     9     4    24 1   
    10     5    16 1   
    11     5    17 1   
    12     5    25 1   
    13     5    26 1   
    14     6     7 1   
    15     6    15 ar  
    16     7     8 1   
    17     7    27 1   
    18     7    28 1   
    19     8    18 1   
    20     8    29 1   
    21     8    30 1   
    22     9    10 ar  
    23     9    21 ar  
    24     9    22 1   
    25    10    11 ar  
    26    10    31 1   
    27    11    12 ar  
    28    11    48 1   
    29    12    13 ar  
    30    12    32 1   
    31    13    21 ar  
    32    13    47 1   
    33    14    36 1   
    34    14    37 1   
    35    14    47 1   
    36    15    38 1   
    37    16    23 1   
    38    16    39 1   
    39    16    40 1   
    40    17    18 1   
    41    17    41 1   
    42    17    42 1   
    43    18    23 1   
    44    18    43 1   
    45    22    44 1   
    46    22    45 1   
    47    23    46 1   
    48    33    48 1   
    49    34    48 1   
    50    35    48 1   
    51    46    51 1   
    52    46    52 1   
    53    46    53 1   
    54    47    49 1   
    55    47    50 1   
@<TRIPOS>SUBSTRUCTURE
     1 KN4         1 TEMP              0 ****  ****    0 ROOT
