@<TRIPOS>MOLECULE
KN9
   63    65     1     0     0
SMALL
abcg2


@<TRIPOS>ATOM
      1 C1           0.4270    -1.2960    -2.5240 c3         1 KN9       0.150100
      2 C10          6.0080    -0.2840    -1.1320 ca         1 KN9      -0.093500
      3 C11         -1.2240     0.1420    -1.5050 c3         1 KN9       0.215100
      4 C12         -2.3620    -0.8450    -1.4750 ca         1 KN9      -0.078300
      5 C13         -2.9310    -1.2640    -2.6750 ca         1 KN9      -0.113000
      6 C14         -3.9680    -2.1840    -2.7070 ca         1 KN9      -0.104000
      7 C15         -4.4530    -2.7130    -1.5190 ca         1 KN9      -0.104000
      8 C16         -3.9030    -2.3080    -0.3140 ca         1 KN9      -0.067000
      9 C17         -2.8730    -1.3730    -0.2820 ca         1 KN9       0.281000
     10 C18         -1.1010    -1.4570     1.5060 c3         1 KN9       0.236800
     11 C19         -2.9780     1.6920     1.0270 ca         1 KN9      -0.337500
     12 C2           1.1110     0.4690    -1.0440 c3         1 KN9       0.200000
     13 C20         -3.7890     2.0670    -0.0410 ca         1 KN9       0.026500
     14 C21         -3.4980     3.2140    -0.7490 ca         1 KN9      -0.203000
     15 C22         -2.3960     4.0020    -0.3990 ca         1 KN9       0.193100
     16 C23         -1.5960     3.6270     0.6820 ca         1 KN9      -0.203000
     17 C24         -1.8890     2.4720     1.3890 ca         1 KN9       0.026500
     18 C26         -1.0850     5.9270    -0.8400 c3         1 KN9       0.145900
     19 C27         -1.2480    -2.6250     2.4570 c3         1 KN9       0.140600
     20 C3           2.3380    -0.1970    -0.5120 c2         1 KN9      -0.198200
     21 C4           3.5690     0.0390    -0.9650 ce         1 KN9      -0.167200
     22 C5           4.8140    -0.5420    -0.4570 ca         1 KN9      -0.047800
     23 C6           4.8700    -1.3500     0.6830 ca         1 KN9      -0.093500
     24 C7           6.0660    -1.8860     1.1260 ca         1 KN9      -0.103000
     25 C8           7.2340    -1.6130     0.4270 ca         1 KN9       0.121000
     26 C9           7.2160    -0.8120    -0.7030 ca         1 KN9      -0.103000
     27 N1           0.0750    -0.4960    -1.3700 n3         1 KN9      -0.723600
     28 N2          -2.3710    -0.9520     0.9830 nh         1 KN9      -0.806300
     29 O1          -1.8140    -3.7140     1.7680 oh         1 KN9      -0.656000
     30 O2          -2.6700     0.2210     3.1660 o          1 KN9      -0.545500
     31 O25         -2.1880     5.0910    -1.1450 os         1 KN9      -0.334100
     32 O3          -4.6660    -0.1610     1.6860 o          1 KN9      -0.545500
     33 S           -3.2550     0.1530     1.8350 sy         1 KN9       1.198600
     34 CL           8.7360    -2.2770     0.9830 cl         1 KN9      -0.203000
     35 H1           1.4000    -1.7610    -2.3720 h1         1 KN9       0.035367
     36 H2          -0.2980    -2.0960    -2.6700 h1         1 KN9       0.035367
     37 H3           0.4770    -0.7070    -3.4530 h1         1 KN9       0.035367
     38 H4           5.9980     0.3430    -2.0160 ha         1 KN9       0.117000
     39 H5          -1.2950     0.7340    -2.4330 h1         1 KN9       0.039700
     40 H6          -1.3310     0.8490    -0.6840 h1         1 KN9       0.039700
     41 H7          -2.5550    -0.8520    -3.6040 ha         1 KN9       0.110000
     42 H8          -4.3930    -2.4860    -3.6550 ha         1 KN9       0.114000
     43 H9          -5.2560    -3.4380    -1.5300 ha         1 KN9       0.119000
     44 H10         -4.2660    -2.7210     0.6160 ha         1 KN9       0.135000
     45 H11         -0.5470    -0.6610     2.0050 h1         1 KN9       0.072700
     46 H12         -0.5000    -1.7380     0.6400 h1         1 KN9       0.072700
     47 H13          0.7150     1.1280    -0.2640 h1         1 KN9       0.036200
     48 H14          1.3690     1.1180    -1.8970 h1         1 KN9       0.036200
     49 H15         -4.6450     1.4720    -0.3280 ha         1 KN9       0.138000
     50 H16         -4.1230     3.5120    -1.5810 ha         1 KN9       0.127000
     51 H17         -0.7450     4.2190     0.9890 ha         1 KN9       0.127000
     52 H18         -1.2570     2.1960     2.2220 ha         1 KN9       0.138000
     53 H19         -1.1010     6.7340    -1.5670 h1         1 KN9       0.046367
     54 H20         -1.1640     6.3520     0.1630 h1         1 KN9       0.046367
     55 H21         -0.1360     5.3920    -0.9260 h1         1 KN9       0.046367
     56 H22         -0.2450    -2.8620     2.8410 h1         1 KN9       0.030700
     57 H23          2.1690    -0.8940     0.3050 ha         1 KN9       0.180000
     58 H25          3.6860     0.7240    -1.8010 ha         1 KN9       0.170000
     59 H27          3.9720    -1.5650     1.2470 ha         1 KN9       0.117000
     60 H28          6.0880    -2.5080     2.0100 ha         1 KN9       0.130000
     61 H29          8.1270    -0.6010    -1.2440 ha         1 KN9       0.130000
     62 H24         -1.8560    -2.3270     3.3170 h1         1 KN9       0.030700
     63 H26         -2.0280    -4.3970     2.4090 ho         1 KN9       0.441000
@<TRIPOS>BOND
     1     1    27 1   
     2     1    35 1   
     3     1    36 1   
     4     1    37 1   
     5     2    22 ar  
     6     2    26 ar  
     7     2    38 1   
     8     3     4 1   
     9     3    27 1   
    10     3    39 1   
    11     3    40 1   
    12     4     5 ar  
    13     4     9 ar  
    14     5     6 ar  
    15     5    41 1   
    16     6     7 ar  
    17     6    42 1   
    18     7     8 ar  
    19     7    43 1   
    20     8     9 ar  
    21     8    44 1   
    22     9    28 1   
    23    10    19 1   
    24    10    28 1   
    25    10    45 1   
    26    10    46 1   
    27    11    13 ar  
    28    11    17 ar  
    29    11    33 1   
    30    12    20 1   
    31    12    27 1   
    32    12    47 1   
    33    12    48 1   
    34    13    14 ar  
    35    13    49 1   
    36    14    15 ar  
    37    14    50 1   
    38    15    16 ar  
    39    15    31 1   
    40    16    17 ar  
    41    16    51 1   
    42    17    52 1   
    43    18    31 1   
    44    18    53 1   
    45    18    54 1   
    46    18    55 1   
    47    19    29 1   
    48    19    56 1   
    49    19    62 1   
    50    20    21 2   
    51    20    57 1   
    52    21    22 1   
    53    21    58 1   
    54    22    23 ar  
    55    23    24 ar  
    56    23    59 1   
    57    24    25 ar  
    58    24    60 1   
    59    25    26 ar  
    60    25    34 1   
    61    26    61 1   
    62    28    33 1   
    63    29    63 1   
    64    30    33 2   
    65    32    33 2   
@<TRIPOS>SUBSTRUCTURE
     1 KN9         1 TEMP              0 ****  ****    0 ROOT
