@<TRIPOS>MOLECULE
KN9
   63    65     1     0     0
SMALL
No Charge or Current Charge


@<TRIPOS>ATOM
      1 C1           0.8160    -1.0700    -2.3100 c3         1 KN9       0.150100
      2 C10          6.3880    -0.8660    -1.3770 ca         1 KN9      -0.093500
      3 C11         -0.7920     0.3910    -1.1090 c3         1 KN9       0.215100
      4 C12         -2.0220    -0.4930    -1.3380 ca         1 KN9      -0.078300
      5 C13         -2.4690    -0.7000    -2.6610 ca         1 KN9      -0.113000
      6 C14         -3.5960    -1.4940    -2.9230 ca         1 KN9      -0.104000
      7 C15         -4.2900    -2.0910    -1.8620 ca         1 KN9      -0.104000
      8 C16         -3.8630    -1.8800    -0.5410 ca         1 KN9      -0.067000
      9 C17         -2.7430    -1.0710    -0.2590 ca         1 KN9       0.281000
     10 C18         -1.1450    -1.4900     1.6500 c3         1 KN9       0.236800
     11 C19         -3.3460     1.6240     1.0400 ca         1 KN9      -0.337500
     12 C2           1.6080     0.5300    -0.6030 c3         1 KN9       0.200000
     13 C20         -4.2960     1.7610     0.0100 ca         1 KN9       0.026500
     14 C21         -4.2840     2.9070    -0.8020 ca         1 KN9      -0.203000
     15 C22         -3.3340     3.9180    -0.5950 ca         1 KN9       0.193100
     16 C23         -2.3870     3.7830     0.4420 ca         1 KN9      -0.203000
     17 C24         -2.3940     2.6390     1.2590 ca         1 KN9       0.026500
     18 C26         -2.4400     6.1050    -1.3070 c3         1 KN9       0.145900
     19 C27         -1.3790    -2.6190     2.6980 c3         1 KN9       0.140600
     20 C3           2.8420    -0.2680    -0.2500 c2         1 KN9      -0.198200
     21 C4           4.0550    -0.1440    -0.8370 ce         1 KN9      -0.167200
     22 C5           5.2790    -0.9330    -0.5080 ca         1 KN9      -0.047800
     23 C6           5.3660    -1.7370     0.6500 ca         1 KN9      -0.093500
     24 C7           6.5380    -2.4640     0.9260 ca         1 KN9      -0.103000
     25 C8           7.6330    -2.3930     0.0500 ca         1 KN9       0.121000
     26 C9           7.5590    -1.5940    -1.1010 ca         1 KN9      -0.103000
     27 N1           0.5020    -0.3390    -1.0580 n3         1 KN9      -0.723600
     28 N2          -2.3650    -0.8700     1.0830 nh         1 KN9      -0.806300
     29 O1          -2.0370    -3.7640     2.1200 oh         1 KN9      -0.656000
     30 O2          -2.5800     0.4120     3.2890 o          1 KN9      -0.545500
     31 O25         -3.3720     5.0160    -1.4300 os         1 KN9      -0.334100
     32 O3          -4.6770    -0.4390     2.0860 o          1 KN9      -0.545500
     33 S           -3.3290     0.1410     2.0570 sy         1 KN9       1.198600
     34 Cl           9.0980    -3.3020     0.3980 cl         1 KN9      -0.203000
     35 H1           1.7550    -1.6310    -2.2190 h1         1 KN9       0.035367
     36 H2           0.0290    -1.7970    -2.5500 h1         1 KN9       0.035367
     37 H3           0.9130    -0.3750    -3.1550 h1         1 KN9       0.035367
     38 H4           6.3420    -0.2510    -2.2730 ha         1 KN9       0.117000
     39 H5          -0.7570     1.1510    -1.9020 h1         1 KN9       0.039700
     40 H6          -0.9330     0.9420    -0.1720 h1         1 KN9       0.039700
     41 H7          -1.9350    -0.2440    -3.4920 ha         1 KN9       0.110000
     42 H8          -3.9270    -1.6500    -3.9470 ha         1 KN9       0.114000
     43 H9          -5.1590    -2.7150    -2.0600 ha         1 KN9       0.119000
     44 H10         -4.4020    -2.3520     0.2750 ha         1 KN9       0.135000
     45 H11         -0.5160    -0.7140     2.1070 h1         1 KN9       0.072700
     46 H12         -0.5440    -1.9200     0.8380 h1         1 KN9       0.072700
     47 H13          1.3000     1.0890     0.2920 h1         1 KN9       0.036200
     48 H14          1.8500     1.2720    -1.3770 h1         1 KN9       0.036200
     49 H15         -5.0350     0.9820    -0.1720 ha         1 KN9       0.138000
     50 H16         -5.0130     3.0090    -1.6010 ha         1 KN9       0.127000
     51 H17         -1.6400     4.5470     0.6280 ha         1 KN9       0.127000
     52 H18         -1.6510     2.5420     2.0490 ha         1 KN9       0.138000
     53 H19         -2.6450     6.8690    -2.0670 h1         1 KN9       0.046367
     54 H20         -2.5190     6.5780    -0.3200 h1         1 KN9       0.046367
     55 H21         -1.4090     5.7540    -1.4490 h1         1 KN9       0.046367
     56 H22         -0.4030    -2.9170     3.1030 h1         1 KN9       0.030700
     57 H23          2.6620    -0.9920     0.5420 ha         1 KN9       0.180000
     58 H25          4.1860     0.5820    -1.6420 ha         1 KN9       0.170000
     59 H27          4.5370    -1.8010     1.3490 ha         1 KN9       0.117000
     60 H28          6.5990    -3.0800     1.8200 ha         1 KN9       0.130000
     61 H29          8.4080    -1.5380    -1.7780 ha         1 KN9       0.130000
     62 H24         -1.9690    -2.2220     3.5330 h1         1 KN9       0.030700
     63 H26         -2.2030    -4.3990     2.8510 ho         1 KN9       0.441000
@<TRIPOS>BOND
     1     1    27 1   
     2     1    35 1   
     3     1    36 1   
     4     1    37 1   
     5     2    22 ar  
     6     2    26 ar  
     7     2    38 1   
     8     3     4 1   
     9     3    27 1   
    10     3    39 1   
    11     3    40 1   
    12     4     5 ar  
    13     4     9 ar  
    14     5     6 ar  
    15     5    41 1   
    16     6     7 ar  
    17     6    42 1   
    18     7     8 ar  
    19     7    43 1   
    20     8     9 ar  
    21     8    44 1   
    22     9    28 1   
    23    10    19 1   
    24    10    28 1   
    25    10    45 1   
    26    10    46 1   
    27    11    13 ar  
    28    11    17 ar  
    29    11    33 1   
    30    12    20 1   
    31    12    27 1   
    32    12    47 1   
    33    12    48 1   
    34    13    14 ar  
    35    13    49 1   
    36    14    15 ar  
    37    14    50 1   
    38    15    16 ar  
    39    15    31 1   
    40    16    17 ar  
    41    16    51 1   
    42    17    52 1   
    43    18    31 1   
    44    18    53 1   
    45    18    54 1   
    46    18    55 1   
    47    19    29 1   
    48    19    56 1   
    49    19    62 1   
    50    20    21 2   
    51    20    57 1   
    52    21    22 1   
    53    21    58 1   
    54    22    23 ar  
    55    23    24 ar  
    56    23    59 1   
    57    24    25 ar  
    58    24    60 1   
    59    25    26 ar  
    60    25    34 1   
    61    26    61 1   
    62    28    33 1   
    63    29    63 1   
    64    30    33 2   
    65    32    33 2   
@<TRIPOS>SUBSTRUCTURE
     1 KN9         1 TEMP              0 ****  ****    0 ROOT
