@<TRIPOS>MOLECULE
KNA
   28    27     1     0     0
SMALL
abcg2


@<TRIPOS>ATOM
      1 C1           4.0640    -0.0450    -0.0400 c          1 KNA       0.717000
      2 O1           5.0730     0.6770    -0.1940 o          1 KNA      -0.744000
      3 C2           2.7100     0.6860    -0.0170 c3         1 KNA      -0.203400
      4 O2           4.0610    -1.2840     0.1020 o          1 KNA      -0.744000
      5 C3           1.4720    -0.1960     0.0090 c3         1 KNA      -0.054400
      6 C4           0.1750     0.6040     0.0140 c3         1 KNA      -0.079400
      7 C5          -1.0720    -0.2700     0.0190 c3         1 KNA      -0.075400
      8 C6          -2.3700     0.5290     0.0210 c3         1 KNA      -0.075400
      9 C7          -3.6160    -0.3480     0.0140 c3         1 KNA      -0.076400
     10 C8          -4.9160     0.4480     0.0170 c3         1 KNA      -0.076400
     11 C9          -6.1510    -0.4430     0.0040 c3         1 KNA      -0.087100
     12 H2           2.7010     1.3520     0.8550 hc         1 KNA       0.014200
     13 H2A          2.6660     1.3580    -0.8820 hc         1 KNA       0.014200
     14 H3           1.4770    -0.8660    -0.8580 hc         1 KNA       0.037700
     15 H3A          1.4980    -0.8470     0.8880 hc         1 KNA       0.037700
     16 H4           0.1570     1.2670     0.8870 hc         1 KNA       0.023700
     17 H4A          0.1490     1.2640    -0.8620 hc         1 KNA       0.023700
     18 H5          -1.0550    -0.9300    -0.8560 hc         1 KNA       0.033700
     19 H5A         -1.0500    -0.9300     0.8940 hc         1 KNA       0.033700
     20 H6          -2.3920     1.1850     0.8990 hc         1 KNA       0.031700
     21 H6A         -2.3890     1.1910    -0.8510 hc         1 KNA       0.031700
     22 H7          -3.5950    -1.0010    -0.8660 hc         1 KNA       0.034700
     23 H7A         -3.5980    -1.0140     0.8840 hc         1 KNA       0.034700
     24 H8          -4.9410     1.0970     0.8980 hc         1 KNA       0.033700
     25 H8A         -4.9340     1.1140    -0.8510 hc         1 KNA       0.033700
     26 H9          -6.1660    -1.0790    -0.8830 hc         1 KNA       0.026033
     27 H9A         -6.1730    -1.0970     0.8780 hc         1 KNA       0.026033
     28 H9B         -7.0720     0.1420     0.0060 hc         1 KNA       0.026033
@<TRIPOS>BOND
     1     1     2 1   
     2     1     3 1   
     3     1     4 1   
     4     3     5 1   
     5     3    12 1   
     6     3    13 1   
     7     5     6 1   
     8     5    14 1   
     9     5    15 1   
    10     6     7 1   
    11     6    16 1   
    12     6    17 1   
    13     7     8 1   
    14     7    18 1   
    15     7    19 1   
    16     8     9 1   
    17     8    20 1   
    18     8    21 1   
    19     9    10 1   
    20     9    22 1   
    21     9    23 1   
    22    10    11 1   
    23    10    24 1   
    24    10    25 1   
    25    11    26 1   
    26    11    27 1   
    27    11    28 1   
@<TRIPOS>SUBSTRUCTURE
     1 KNA         1 TEMP              0 ****  ****    0 ROOT
