@<TRIPOS>MOLECULE
KNA
   28    27     1     0     0
SMALL
No Charge or Current Charge


@<TRIPOS>ATOM
      1 C1           4.0550    -0.0940    -0.0230 c          1 KNA       0.717000
      2 O1           4.5210    -0.2810    -1.1380 o          1 KNA      -0.744000
      3 C2           2.7780     0.7570     0.0990 c3         1 KNA      -0.203400
      4 O2           4.5210    -0.5860     0.9940 o          1 KNA      -0.744000
      5 C3           1.5230    -0.1400    -0.0290 c3         1 KNA      -0.054400
      6 C4           0.1980     0.6480     0.0840 c3         1 KNA      -0.079400
      7 C5          -1.0520    -0.2490    -0.0440 c3         1 KNA      -0.075400
      8 C6          -2.3760     0.5390     0.0690 c3         1 KNA      -0.075400
      9 C7          -3.6270    -0.3590    -0.0590 c3         1 KNA      -0.076400
     10 C8          -4.9500     0.4290     0.0540 c3         1 KNA      -0.076400
     11 C9          -6.1980    -0.4660    -0.0740 c3         1 KNA      -0.087100
     12 H2           2.7180     1.2180     1.0930 hc         1 KNA       0.014200
     13 H2A          2.7180     1.4780    -0.7260 hc         1 KNA       0.014200
     14 H3           1.5500    -0.6610    -0.9940 hc         1 KNA       0.037700
     15 H3A          1.5500    -0.9110     0.7510 hc         1 KNA       0.037700
     16 H4           0.1700     1.1680     1.0490 hc         1 KNA       0.023700
     17 H4A          0.1690     1.4180    -0.6970 hc         1 KNA       0.023700
     18 H5          -1.0250    -0.7700    -1.0100 hc         1 KNA       0.033700
     19 H5A         -1.0240    -1.0200     0.7370 hc         1 KNA       0.033700
     20 H6          -2.4040     1.0590     1.0340 hc         1 KNA       0.031700
     21 H6A         -2.4040     1.3090    -0.7120 hc         1 KNA       0.031700
     22 H7          -3.5990    -0.8790    -1.0250 hc         1 KNA       0.034700
     23 H7A         -3.5990    -1.1290     0.7210 hc         1 KNA       0.034700
     24 H8          -4.9820     0.9500     1.0190 hc         1 KNA       0.033700
     25 H8A         -4.9830     1.1990    -0.7270 hc         1 KNA       0.033700
     26 H9          -6.2130    -0.9740    -1.0460 hc         1 KNA       0.026033
     27 H9A         -6.2130    -1.2260     0.7160 hc         1 KNA       0.026033
     28 H9B         -7.1100     0.1370     0.0120 hc         1 KNA       0.026033
@<TRIPOS>BOND
     1     1     2 1   
     2     1     3 1   
     3     1     4 1   
     4     3     5 1   
     5     3    12 1   
     6     3    13 1   
     7     5     6 1   
     8     5    14 1   
     9     5    15 1   
    10     6     7 1   
    11     6    16 1   
    12     6    17 1   
    13     7     8 1   
    14     7    18 1   
    15     7    19 1   
    16     8     9 1   
    17     8    20 1   
    18     8    21 1   
    19     9    10 1   
    20     9    22 1   
    21     9    23 1   
    22    10    11 1   
    23    10    24 1   
    24    10    25 1   
    25    11    26 1   
    26    11    27 1   
    27    11    28 1   
@<TRIPOS>SUBSTRUCTURE
     1 KNA         1 TEMP              0 ****  ****    0 ROOT
