@<TRIPOS>MOLECULE
KNB
   18    17     1     0     0
SMALL
bcc


@<TRIPOS>ATOM
      1 C           15.0510   -23.0210   -17.8430 c          1 KNB       0.931600
      2 O           14.0250   -22.9700   -18.5450 o          1 KNB      -0.820800
      3 CA          16.3120   -23.6400   -18.5260 c3         1 KNB       0.027500
      4 CB          15.8950   -24.9010   -19.2760 c3         1 KNB      -0.088600
      5 S           17.2360   -25.7200   -20.1500 s6         1 KNB       0.957000
      6 O2          18.1850   -24.7150   -20.6400 o          1 KNB      -0.632300
      7 CS          18.0550   -26.7240   -18.9280 c3         1 KNB      -0.216300
      8 O1          16.6470   -26.6280   -21.1390 o          1 KNB      -0.632300
      9 N           17.3670   -23.9070   -17.5660 n8         1 KNB      -0.932800
     10 H21         16.6290   -22.9070   -19.2790 h1         1 KNB       0.037700
     11 H111        15.4630   -25.6520   -18.6100 h1         1 KNB       0.100700
     12 H112        15.1630   -24.6720   -20.0510 h1         1 KNB       0.100700
     13 H281        18.8710   -27.2390   -19.4320 h1         1 KNB       0.095367
     14 H282        18.4260   -26.0880   -18.1290 h1         1 KNB       0.095367
     15 H283        17.3470   -27.4490   -18.5310 h1         1 KNB       0.095367
     16 HN1         18.2550   -23.5630   -17.9060 hn         1 KNB       0.351300
     17 OXT         15.1950   -22.6140   -16.6760 o          1 KNB      -0.820800
     18 H2          17.1440   -23.3850   -16.7260 hn         1 KNB       0.351300
@<TRIPOS>BOND
     1     1     2 1   
     2     1     3 1   
     3     1    17 1   
     4     3     4 1   
     5     3     9 1   
     6     3    10 1   
     7     4     5 1   
     8     4    11 1   
     9     4    12 1   
    10     5     6 2   
    11     5     7 1   
    12     5     8 2   
    13     7    13 1   
    14     7    14 1   
    15     7    15 1   
    16     9    16 1   
    17     9    18 1   
@<TRIPOS>SUBSTRUCTURE
     1 KNB         1 TEMP              0 ****  ****    0 ROOT
