@<TRIPOS>MOLECULE
KNB
   18    17     1     0     0
SMALL
No Charge or Current Charge


@<TRIPOS>ATOM
      1 C           16.0420   -22.7820   -18.6370 c          1 KNB       0.931600
      2 O           14.9060   -22.5130   -19.0200 o          1 KNB      -0.820800
      3 CA          16.3010   -24.1760   -17.9030 c3         1 KNB       0.027500
      4 CB          15.8870   -25.3870   -18.7850 c3         1 KNB      -0.088600
      5 S           16.8350   -25.5760   -20.3240 s6         1 KNB       0.957000
      6 O2          16.7430   -24.3340   -21.1030 o          1 KNB      -0.632300
      7 CS          18.5470   -25.7770   -19.8140 c3         1 KNB      -0.216300
      8 O1          16.4150   -26.8340   -20.9590 o          1 KNB      -0.632300
      9 N           15.6930   -24.3480   -16.5240 n8         1 KNB      -0.932800
     10 H21         17.3870   -24.2340   -17.7510 h1         1 KNB       0.037700
     11 H111        16.0300   -26.3250   -18.2390 h1         1 KNB       0.100700
     12 H112        14.8350   -25.3050   -19.0780 h1         1 KNB       0.100700
     13 H281        19.1360   -25.9960   -20.7110 h1         1 KNB       0.095367
     14 H282        18.8810   -24.8420   -19.3510 h1         1 KNB       0.095367
     15 H283        18.5950   -26.6090   -19.1040 h1         1 KNB       0.095367
     16 HN1         16.0540   -25.2030   -16.0860 hn         1 KNB       0.351300
     17 OXT         16.9540   -21.9610   -18.6560 o          1 KNB      -0.820800
     18 H2          16.0230   -23.5930   -15.9090 hn         1 KNB       0.351300
@<TRIPOS>BOND
     1     1     2 1   
     2     1     3 1   
     3     1    17 1   
     4     3     4 1   
     5     3     9 1   
     6     3    10 1   
     7     4     5 1   
     8     4    11 1   
     9     4    12 1   
    10     5     6 2   
    11     5     7 1   
    12     5     8 2   
    13     7    13 1   
    14     7    14 1   
    15     7    15 1   
    16     9    16 1   
    17     9    18 1   
@<TRIPOS>SUBSTRUCTURE
     1 KNB         1 TEMP              0 ****  ****    0 ROOT
