@<TRIPOS>MOLECULE
KNC
   69    71     1     0     0
SMALL
No Charge or Current Charge


@<TRIPOS>ATOM
      1 C2           3.4230     1.7240    -0.3590 c6         1 KNC       0.155500
      2 C3           4.7040     1.4180    -1.2070 c6         1 KNC       0.176300
      3 C4           5.8320     0.8210    -0.3140 c6         1 KNC       0.097300
      4 C5           5.2890    -0.4390     0.4330 c6         1 KNC       0.147300
      5 C6           6.3470    -1.0730     1.3990 c3         1 KNC       0.166600
      6 C7          -1.4460    -2.4950    -0.4450 c6         1 KNC       0.147500
      7 C8          -1.3060    -1.0740     0.2110 c6         1 KNC       0.159300
      8 C9          -0.0150    -0.3730    -0.3000 c6         1 KNC       0.137300
      9 C10          1.2530    -1.2280     0.0530 c6         1 KNC       0.184300
     10 C11          1.1120    -2.6480    -0.5970 c6         1 KNC       0.172500
     11 C12         -0.1920    -3.3550    -0.1490 c6         1 KNC      -0.112400
     12 C13         -3.6040    -0.3900     0.7640 c6         1 KNC       0.363300
     13 C14         -4.8860    -0.7190    -0.0910 c6         1 KNC       0.119300
     14 C15         -5.2940     0.5480    -0.9030 c6         1 KNC       0.132500
     15 C16         -5.4710     1.7630     0.0460 c6         1 KNC       0.159300
     16 C17         -4.1460     2.0000     0.8290 c6         1 KNC       0.123300
     17 C18         -4.2560     3.1880     1.8400 c3         1 KNC       0.169600
     18 N2           2.2780    -3.5100    -0.2920 n8         1 KNC      -1.000200
     19 N3          -2.6500    -3.2460     0.0030 n8         1 KNC      -1.002200
     20 N4          -6.5170     0.3470    -1.7430 n8         1 KNC      -0.972200
     21 C1           3.0080     0.4430     0.4610 c6         1 KNC       0.389300
     22 O5           4.1220    -0.0770     1.2190 os         1 KNC      -0.458000
     23 O7           5.2120     2.5940    -1.8700 oh         1 KNC      -0.662000
     24 O8           6.9890     0.5200    -1.1300 oh         1 KNC      -0.722000
     25 O9           2.4920    -0.6070    -0.3910 os         1 KNC      -0.474000
     26 O1           5.8410    -2.1970     2.1450 oh         1 KNC      -0.700000
     27 O10          0.0170     0.9760     0.2150 oh         1 KNC      -0.742000
     28 O11         -2.4330    -0.1990    -0.0600 os         1 KNC      -0.494000
     29 O12         -3.7960     0.7940     1.5700 os         1 KNC      -0.458000
     30 O13         -4.6990    -1.8530    -0.9760 oh         1 KNC      -0.753000
     31 O14         -5.8760     2.8860    -0.7480 oh         1 KNC      -0.692000
     32 O15         -3.0550     3.3930     2.6090 oh         1 KNC      -0.720000
     33 N6           2.2980     2.2810    -1.1900 n8         1 KNC      -0.988200
     34 H13         -3.8950    -2.3550    -0.6230 ho         1 KNC       0.558000
     35 H14         -5.6940    -0.9440     0.6210 h1         1 KNC       0.063700
     36 H15         -4.4640     0.7790    -1.5920 h1         1 KNC       0.089700
     37 HA          -3.4360    -1.2350     1.4490 h2         1 KNC       0.079700
     38 H4N1        -6.3420    -0.4870    -2.3190 hn         1 KNC       0.395500
     39 H4N2        -7.2840     0.0330    -1.1370 hn         1 KNC       0.395500
     40 H16         -6.2640     1.5260     0.7710 h1         1 KNC       0.033700
     41 HB          -6.3680     2.4540    -1.4910 ho         1 KNC       0.498000
     42 H17         -3.3410     2.2330     0.1180 h1         1 KNC       0.077700
     43 H181        -4.4960     4.0990     1.2760 h1         1 KNC       0.027700
     44 H182        -5.1030     2.9890     2.5110 h1         1 KNC       0.027700
     45 HC          -3.2500     4.1070     3.2600 ho         1 KNC       0.506000
     46 H8          -1.2130    -1.1930     1.3010 h1         1 KNC       0.049700
     47 H9          -0.0820    -0.3300    -1.3980 h1         1 KNC       0.062700
     48 H7          -1.5300    -2.3590    -1.5360 h1         1 KNC       0.075700
     49 H10         -0.9380     1.2080     0.3340 ho         1 KNC       0.541000
     50 HD           1.3010    -1.3620     1.1440 h1         1 KNC       0.070700
     51 H3N1        -2.6390    -4.1700    -0.4540 hn         1 KNC       0.404000
     52 H3N2        -2.5250    -3.5000     0.9930 hn         1 KNC       0.404000
     53 H121        -0.1390    -3.5760     0.9270 hc         1 KNC       0.053700
     54 H122        -0.2790    -4.3230    -0.6630 hc         1 KNC       0.053700
     55 H11          1.0910    -2.5150    -1.6890 h1         1 KNC       0.030700
     56 H2N1         2.4270    -4.1550    -1.0760 hn         1 KNC       0.406500
     57 H2N2         3.1120    -2.9100    -0.3120 hn         1 KNC       0.406500
     58 H1           2.2320     0.7520     1.1780 h2         1 KNC       0.088700
     59 H2           3.6720     2.5010     0.3800 h1         1 KNC       0.032700
     60 H5           5.0030    -1.2040    -0.3040 h1         1 KNC       0.064700
     61 H6C1         7.2130    -1.3890     0.8030 h1         1 KNC       0.021700
     62 H6C2         6.6920    -0.2920     2.0890 h1         1 KNC       0.021700
     63 H4           6.0990     1.5730     0.4440 h1         1 KNC       0.048700
     64 HE           6.5510    -2.4700     2.7700 ho         1 KNC       0.501000
     65 HF           7.7800     0.5130    -0.5410 ho         1 KNC       0.507000
     66 H3           4.4340     0.6590    -1.9570 h1         1 KNC       0.071700
     67 HG           6.1300     2.3460    -2.1250 ho         1 KNC       0.456000
     68 H6N1         1.4130     1.9270    -0.7890 hn         1 KNC       0.410000
     69 H6N2         2.2500     3.2940    -1.0440 hn         1 KNC       0.410000
@<TRIPOS>BOND
     1     1     2 1   
     2     1    21 1   
     3     1    33 1   
     4     1    59 1   
     5     2     3 1   
     6     2    23 1   
     7     2    66 1   
     8     3     4 1   
     9     3    24 1   
    10     3    63 1   
    11     4     5 1   
    12     4    22 1   
    13     4    60 1   
    14     5    26 1   
    15     5    61 1   
    16     5    62 1   
    17     6     7 1   
    18     6    11 1   
    19     6    19 1   
    20     6    48 1   
    21     7     8 1   
    22     7    28 1   
    23     7    46 1   
    24     8     9 1   
    25     8    27 1   
    26     8    47 1   
    27     9    10 1   
    28     9    25 1   
    29     9    50 1   
    30    10    11 1   
    31    10    18 1   
    32    10    55 1   
    33    11    53 1   
    34    11    54 1   
    35    12    13 1   
    36    12    28 1   
    37    12    29 1   
    38    12    37 1   
    39    13    14 1   
    40    13    30 1   
    41    13    35 1   
    42    14    15 1   
    43    14    20 1   
    44    14    36 1   
    45    15    16 1   
    46    15    31 1   
    47    15    40 1   
    48    16    17 1   
    49    16    29 1   
    50    16    42 1   
    51    17    32 1   
    52    17    43 1   
    53    17    44 1   
    54    18    56 1   
    55    18    57 1   
    56    19    51 1   
    57    19    52 1   
    58    20    38 1   
    59    20    39 1   
    60    21    22 1   
    61    21    25 1   
    62    21    58 1   
    63    23    67 1   
    64    24    65 1   
    65    26    64 1   
    66    27    49 1   
    67    30    34 1   
    68    31    41 1   
    69    32    45 1   
    70    33    68 1   
    71    33    69 1   
@<TRIPOS>SUBSTRUCTURE
     1 KNC         1 TEMP              0 ****  ****    0 ROOT
