@<TRIPOS>MOLECULE
KNC
   69    71     1     0     0
SMALL
abcg2


@<TRIPOS>ATOM
      1 C2           3.2050     1.7840     0.4060 c6         1 KNC       0.155500
      2 C3           4.3550     1.7100    -0.5880 c6         1 KNC       0.176300
      3 C4           5.5130     0.9280     0.0130 c6         1 KNC       0.097300
      4 C5           5.0160    -0.4530     0.4480 c6         1 KNC       0.147300
      5 C6           6.0950    -1.2520     1.1430 c3         1 KNC       0.166600
      6 C7          -1.3320    -2.5710    -0.7650 c6         1 KNC       0.147500
      7 C8          -1.4080    -1.3840     0.1860 c6         1 KNC       0.159300
      8 C9          -0.2120    -0.4440     0.0440 c6         1 KNC       0.137300
      9 C10          1.1170    -1.1820     0.1920 c6         1 KNC       0.184300
     10 C11          1.1960    -2.3920    -0.7360 c6         1 KNC       0.172500
     11 C12         -0.0140    -3.2990    -0.5420 c6         1 KNC      -0.112400
     12 C13         -3.4570    -0.3220     0.9310 c6         1 KNC       0.363300
     13 C14         -4.8710    -0.7350     0.5270 c6         1 KNC       0.119300
     14 C15         -5.4000     0.1250    -0.6350 c6         1 KNC       0.132500
     15 C16         -5.2180     1.6080    -0.3090 c6         1 KNC       0.159300
     16 C17         -3.7590     1.8640     0.0800 c6         1 KNC       0.123300
     17 C18         -3.4560     3.2890     0.4820 c3         1 KNC       0.169600
     18 N2           2.4010    -3.1510    -0.4480 n8         1 KNC      -1.000200
     19 N3          -2.5190    -3.4020    -0.5880 n8         1 KNC      -1.002200
     20 N4          -6.7870    -0.1570    -0.9640 n8         1 KNC      -0.972200
     21 C1           2.8180     0.3800     0.8840 c6         1 KNC       0.389300
     22 O5           3.9380    -0.3150     1.3560 os         1 KNC      -0.458000
     23 O7           4.7320     3.0280    -0.9110 oh         1 KNC      -0.662000
     24 O8           6.5210     0.8330    -0.9710 oh         1 KNC      -0.722000
     25 O9           2.1810    -0.3080    -0.1470 os         1 KNC      -0.474000
     26 O1           5.6160    -2.5490     1.4050 oh         1 KNC      -0.700000
     27 O10         -0.2600     0.5640     1.0300 oh         1 KNC      -0.742000
     28 O11         -2.5910    -0.6740    -0.1010 os         1 KNC      -0.494000
     29 O12         -3.3950     1.0480     1.1850 os         1 KNC      -0.458000
     30 O13         -4.9490    -2.1080     0.2540 oh         1 KNC      -0.753000
     31 O14         -5.5720     2.3650    -1.4430 oh         1 KNC      -0.692000
     32 O15         -2.0610     3.3920     0.6620 oh         1 KNC      -0.720000
     33 N6           2.0690     2.4630    -0.1890 n8         1 KNC      -0.988200
     34 H13         -4.1180    -2.4310    -0.1670 ho         1 KNC       0.558000
     35 H14         -5.5190    -0.5420     1.3930 h1         1 KNC       0.063700
     36 H15         -4.8030    -0.0970    -1.5280 h1         1 KNC       0.089700
     37 HA          -3.1690    -0.8170     1.8660 h2         1 KNC       0.079700
     38 H4N1        -6.8720    -1.1390    -1.1960 hn         1 KNC       0.395500
     39 H4N2        -7.3620    -0.0230    -0.1390 hn         1 KNC       0.395500
     40 H16         -5.8630     1.8590     0.5480 h1         1 KNC       0.033700
     41 HB          -5.8480     3.2410    -1.1600 ho         1 KNC       0.498000
     42 H17         -3.1350     1.6280    -0.7930 h1         1 KNC       0.077700
     43 H181        -3.8070     3.9640    -0.3070 h1         1 KNC       0.027700
     44 H182        -4.0070     3.5440     1.3980 h1         1 KNC       0.027700
     45 HC          -1.8450     4.3010     0.8880 ho         1 KNC       0.506000
     46 H8          -1.4300    -1.7650     1.2190 h1         1 KNC       0.049700
     47 H9          -0.2400    -0.0060    -0.9660 h1         1 KNC       0.062700
     48 H7          -1.3590    -2.1870    -1.7910 h1         1 KNC       0.075700
     49 H10         -0.9870     1.1710     0.8480 ho         1 KNC       0.541000
     50 HD           1.2230    -1.5380     1.2280 h1         1 KNC       0.070700
     51 H3N1        -2.6120    -4.0370    -1.3720 hn         1 KNC       0.404000
     52 H3N2        -2.4080    -3.9900     0.2310 hn         1 KNC       0.404000
     53 H121         0.0080    -3.7160     0.4720 hc         1 KNC       0.053700
     54 H122         0.0540    -4.1460    -1.2320 hc         1 KNC       0.053700
     55 H11          1.1670    -2.0080    -1.7700 h1         1 KNC       0.030700
     56 H2N1         2.5160    -3.8750    -1.1470 hn         1 KNC       0.406500
     57 H2N2         3.2190    -2.5610    -0.5240 hn         1 KNC       0.406500
     58 H1           2.1610     0.4650     1.7540 h2         1 KNC       0.088700
     59 H2           3.5820     2.2980     1.3050 h1         1 KNC       0.032700
     60 H5           4.7030    -0.9990    -0.4540 h1         1 KNC       0.064700
     61 H6C1         6.9780    -1.2780     0.4940 h1         1 KNC       0.021700
     62 H6C2         6.3890    -0.7280     2.0640 h1         1 KNC       0.021700
     63 H4           5.8780     1.4690     0.8990 h1         1 KNC       0.048700
     64 HE           6.3370    -3.0570     1.7870 ho         1 KNC       0.501000
     65 HF           7.3800     0.8040    -0.5400 ho         1 KNC       0.507000
     66 H3           4.0080     1.1760    -1.4870 h1         1 KNC       0.071700
     67 HG           5.4600     2.9810    -1.5400 ho         1 KNC       0.456000
     68 H6N1         1.2500     2.3370     0.3920 hn         1 KNC       0.410000
     69 H6N2         2.2530     3.4570    -0.2130 hn         1 KNC       0.410000
@<TRIPOS>BOND
     1     1     2 1   
     2     1    21 1   
     3     1    33 1   
     4     1    59 1   
     5     2     3 1   
     6     2    23 1   
     7     2    66 1   
     8     3     4 1   
     9     3    24 1   
    10     3    63 1   
    11     4     5 1   
    12     4    22 1   
    13     4    60 1   
    14     5    26 1   
    15     5    61 1   
    16     5    62 1   
    17     6     7 1   
    18     6    11 1   
    19     6    19 1   
    20     6    48 1   
    21     7     8 1   
    22     7    28 1   
    23     7    46 1   
    24     8     9 1   
    25     8    27 1   
    26     8    47 1   
    27     9    10 1   
    28     9    25 1   
    29     9    50 1   
    30    10    11 1   
    31    10    18 1   
    32    10    55 1   
    33    11    53 1   
    34    11    54 1   
    35    12    13 1   
    36    12    28 1   
    37    12    29 1   
    38    12    37 1   
    39    13    14 1   
    40    13    30 1   
    41    13    35 1   
    42    14    15 1   
    43    14    20 1   
    44    14    36 1   
    45    15    16 1   
    46    15    31 1   
    47    15    40 1   
    48    16    17 1   
    49    16    29 1   
    50    16    42 1   
    51    17    32 1   
    52    17    43 1   
    53    17    44 1   
    54    18    56 1   
    55    18    57 1   
    56    19    51 1   
    57    19    52 1   
    58    20    38 1   
    59    20    39 1   
    60    21    22 1   
    61    21    25 1   
    62    21    58 1   
    63    23    67 1   
    64    24    65 1   
    65    26    64 1   
    66    27    49 1   
    67    30    34 1   
    68    31    41 1   
    69    32    45 1   
    70    33    68 1   
    71    33    69 1   
@<TRIPOS>SUBSTRUCTURE
     1 KNC         1 TEMP              0 ****  ****    0 ROOT
