@<TRIPOS>MOLECULE
KND
   54    56     1     0     0
SMALL
No Charge or Current Charge


@<TRIPOS>ATOM
      1 C14          1.4890     2.7250     0.5300 ca         1 KND      -0.131000
      2 C15          1.4740     1.3200     0.5970 ca         1 KND      -0.067300
      3 C18          3.5370     0.0360    -0.1580 c3         1 KND      -0.074400
      4 C17          2.7140     0.5580     1.0450 c3         1 KND      -0.032100
      5 C16          0.3050     0.6190     0.2390 ca         1 KND      -0.101000
      6 C22          4.7420    -1.7940     1.2030 c6         1 KND       0.153600
      7 C23          4.9220    -0.6060     0.1920 c6         1 KND       0.146500
      8 C13          0.3430     3.4210     0.1130 ca         1 KND       0.135000
      9 C12         -0.8240     2.7200    -0.2420 ca         1 KND       0.131000
     10 C11         -0.8500     1.3090    -0.1840 ca         1 KND      -0.087300
     11 C25          6.9450    -1.7660    -0.6520 c6         1 KND       0.126800
     12 C26          6.6930    -2.9180     0.3590 c6         1 KND       0.151600
     13 C02         -6.5010    -0.4490    -0.3530 ca         1 KND       0.600900
     14 C03         -6.5680    -1.8430    -0.3880 ca         1 KND      -0.232000
     15 C04         -5.4140    -2.5740    -0.0680 ca         1 KND       0.000700
     16 C05         -4.2620    -1.8450     0.2690 ca         1 KND      -0.216000
     17 C06         -4.3090    -0.4370     0.2760 ca         1 KND       0.396300
     18 C09         -2.1030     0.5240    -0.5600 c3         1 KND      -0.026100
     19 F12         -1.9240     3.4050    -0.6390 f          1 KND      -0.159000
     20 F13          0.3710     4.7730     0.0560 f          1 KND      -0.163000
     21 N01         -5.4270     0.2570    -0.0330 nb         1 KND      -0.751000
     22 N02         -7.5370     0.3460    -0.6300 nv         1 KND      -1.053900
     23 N24          5.6800    -1.0610    -1.0320 n3         1 KND      -0.714600
     24 O21          6.0120    -2.4060     1.5250 os         1 KND      -0.448000
     25 H1           2.3840     3.2800     0.7990 ha         1 KND       0.133000
     26 H2           2.9270    -0.6840    -0.7170 hc         1 KND       0.053700
     27 H3           3.6860     0.8930    -0.8240 hc         1 KND       0.053700
     28 H4           3.3510     1.2020     1.6640 hc         1 KND       0.050700
     29 H5           2.4120    -0.2820     1.6810 hc         1 KND       0.050700
     30 H6           0.2950    -0.4670     0.2900 ha         1 KND       0.120000
     31 H7           4.2920    -1.4350     2.1370 h1         1 KND       0.050200
     32 H8           4.0740    -2.5550     0.7740 h1         1 KND       0.050200
     33 H9           5.5120     0.1700     0.7040 h1         1 KND       0.032700
     34 H10          7.6570    -1.0560    -0.2040 h1         1 KND       0.041200
     35 H11          7.4310    -2.1860    -1.5450 h1         1 KND       0.041200
     36 H12          6.0800    -3.7030    -0.1070 h1         1 KND       0.051200
     37 H13          7.6490    -3.3640     0.6660 h1         1 KND       0.051200
     38 H17         -7.4910    -2.3450    -0.6610 ha         1 KND       0.119000
     39 H18         -3.3380    -2.3580     0.5210 ha         1 KND       0.121000
     40 H19         -5.0870    -4.4660    -1.0710 hc         1 KND       0.046700
     41 H20         -4.7240    -4.5000     0.6630 hc         1 KND       0.046700
     42 H21         -6.4050    -4.5000     0.1130 hc         1 KND       0.046700
     43 H24         -2.6250     1.0110    -1.3940 hc         1 KND       0.065200
     44 H25         -1.8270    -0.4740    -0.9230 hc         1 KND       0.065200
     45 H26         -8.4650    -0.0520    -0.5470 hn         1 KND       0.469000
     46 H27         -7.4270     1.3110    -0.3440 hn         1 KND       0.469000
     47 C27          5.9410     0.0050    -2.0320 c3         1 KND       0.150100
     48 C08         -3.0750     0.3780     0.6310 c3         1 KND      -0.122700
     49 C07         -5.4080    -4.0930    -0.0920 c3         1 KND      -0.053800
     50 H14          6.5580    -0.3800    -2.8550 h1         1 KND       0.032367
     51 H15          5.0080     0.3750    -2.4750 h1         1 KND       0.032367
     52 H16          6.4710     0.8510    -1.5740 h1         1 KND       0.032367
     53 H22         -3.3630     1.3750     0.9840 hc         1 KND       0.057200
     54 H23         -2.5480    -0.1010     1.4650 hc         1 KND       0.057200
@<TRIPOS>BOND
     1     1     2 ar  
     2     1     8 ar  
     3     1    25 1   
     4     2     4 1   
     5     2     5 ar  
     6     3     4 1   
     7     3     7 1   
     8     3    26 1   
     9     3    27 1   
    10     4    28 1   
    11     4    29 1   
    12     5    10 ar  
    13     5    30 1   
    14     6     7 1   
    15     6    24 1   
    16     6    31 1   
    17     6    32 1   
    18     7    23 1   
    19     7    33 1   
    20     8     9 ar  
    21     8    20 1   
    22     9    10 ar  
    23     9    19 1   
    24    10    18 1   
    25    11    12 1   
    26    11    23 1   
    27    11    34 1   
    28    11    35 1   
    29    12    24 1   
    30    12    36 1   
    31    12    37 1   
    32    13    14 ar  
    33    13    21 ar  
    34    13    22 1   
    35    14    15 ar  
    36    14    38 1   
    37    15    16 ar  
    38    15    49 1   
    39    16    17 ar  
    40    16    39 1   
    41    17    21 ar  
    42    17    48 1   
    43    18    43 1   
    44    18    44 1   
    45    18    48 1   
    46    22    45 1   
    47    22    46 1   
    48    23    47 1   
    49    40    49 1   
    50    41    49 1   
    51    42    49 1   
    52    47    50 1   
    53    47    51 1   
    54    47    52 1   
    55    48    53 1   
    56    48    54 1   
@<TRIPOS>SUBSTRUCTURE
     1 KND         1 TEMP              0 ****  ****    0 ROOT
