@<TRIPOS>MOLECULE
KND
   54    56     1     0     0
SMALL
abcg2


@<TRIPOS>ATOM
      1 C14          1.4970     2.3860     0.7490 ca         1 KND      -0.131000
      2 C15          1.5060     0.9940     0.7010 ca         1 KND      -0.067300
      3 C18          3.6330     0.0360    -0.2180 c3         1 KND      -0.074400
      4 C17          2.7600     0.2320     1.0260 c3         1 KND      -0.032100
      5 C16          0.3510     0.3290     0.3040 ca         1 KND      -0.101000
      6 C22          4.8940    -1.8400     0.8530 c6         1 KND       0.153600
      7 C23          5.0220    -0.5260     0.0880 c6         1 KND       0.146500
      8 C13          0.3490     3.0670     0.4070 ca         1 KND       0.135000
      9 C12         -0.7920     2.3890     0.0160 ca         1 KND       0.131000
     10 C11         -0.8150     1.0060    -0.0470 ca         1 KND      -0.087300
     11 C25          7.0660    -1.3820    -0.8210 c6         1 KND       0.126800
     12 C26          6.8620    -2.6690    -0.0540 c6         1 KND       0.151600
     13 C02         -6.2070    -0.4300    -0.9550 ca         1 KND       0.600900
     14 C03         -6.6380    -1.6940    -0.5130 ca         1 KND      -0.232000
     15 C04         -5.8520    -2.3960     0.3760 ca         1 KND       0.000700
     16 C05         -4.6540    -1.8110     0.8030 ca         1 KND      -0.216000
     17 C06         -4.3100    -0.5600     0.3240 ca         1 KND       0.396300
     18 C09         -2.0640     0.2700    -0.4380 c3         1 KND      -0.026100
     19 F12         -1.8870     3.0980    -0.2980 f          1 KND      -0.159000
     20 F13          0.3190     4.4040     0.4550 f          1 KND      -0.163000
     21 N01         -5.0710     0.1170    -0.5370 nb         1 KND      -0.751000
     22 N02         -6.9340     0.2720    -1.8730 nv         1 KND      -1.053900
     23 N24          5.7880    -0.7640    -1.1320 n3         1 KND      -0.714600
     24 O21          6.1380    -2.4360     1.1320 os         1 KND      -0.448000
     25 H1           2.3760     2.9400     1.0540 ha         1 KND       0.133000
     26 H2           3.1240    -0.6250    -0.9270 hc         1 KND       0.053700
     27 H3           3.7320     1.0060    -0.7110 hc         1 KND       0.053700
     28 H4           3.3310     0.7670     1.7900 hc         1 KND       0.050700
     29 H5           2.4850    -0.7330     1.4570 hc         1 KND       0.050700
     30 H6           0.3500    -0.7550     0.2640 ha         1 KND       0.120000
     31 H7           4.4120    -1.6720     1.8160 h1         1 KND       0.050200
     32 H8           4.2580    -2.5250     0.2710 h1         1 KND       0.050200
     33 H9           5.5500     0.2000     0.7370 h1         1 KND       0.032700
     34 H10          7.7160    -0.7060    -0.2380 h1         1 KND       0.041200
     35 H11          7.5900    -1.6060    -1.7530 h1         1 KND       0.041200
     36 H12          6.3360    -3.3960    -0.6900 h1         1 KND       0.051200
     37 H13          7.8240    -3.1000     0.2260 h1         1 KND       0.051200
     38 H17         -7.5760    -2.1030    -0.8700 ha         1 KND       0.119000
     39 H18         -4.0090    -2.3260     1.5050 ha         1 KND       0.121000
     40 H19         -5.6670    -4.5290     0.3630 hc         1 KND       0.046700
     41 H20         -6.0750    -3.8600     1.9330 hc         1 KND       0.046700
     42 H21         -7.3060    -3.9590     0.6690 hc         1 KND       0.046700
     43 H24         -2.5750     0.7820    -1.2550 hc         1 KND       0.065200
     44 H25         -1.7890    -0.7190    -0.8100 hc         1 KND       0.065200
     45 H26         -7.9110     0.0480    -1.9610 hn         1 KND       0.469000
     46 H27         -6.7310     1.2560    -1.9390 hn         1 KND       0.469000
     47 C27          5.9930     0.4310    -1.9230 c3         1 KND       0.150100
     48 C08         -3.0340     0.1150     0.7420 c3         1 KND      -0.122700
     49 C07         -6.2540    -3.7550     0.8630 c3         1 KND      -0.053800
     50 H14          6.6410     0.1960    -2.7680 h1         1 KND       0.032367
     51 H15          5.0560     0.8070    -2.3320 h1         1 KND       0.032367
     52 H16          6.4680     1.2470    -1.3570 h1         1 KND       0.032367
     53 H22         -3.2720     1.1000     1.1500 hc         1 KND       0.057200
     54 H23         -2.5510    -0.4550     1.5370 hc         1 KND       0.057200
@<TRIPOS>BOND
     1     1     2 ar  
     2     1     8 ar  
     3     1    25 1   
     4     2     4 1   
     5     2     5 ar  
     6     3     4 1   
     7     3     7 1   
     8     3    26 1   
     9     3    27 1   
    10     4    28 1   
    11     4    29 1   
    12     5    10 ar  
    13     5    30 1   
    14     6     7 1   
    15     6    24 1   
    16     6    31 1   
    17     6    32 1   
    18     7    23 1   
    19     7    33 1   
    20     8     9 ar  
    21     8    20 1   
    22     9    10 ar  
    23     9    19 1   
    24    10    18 1   
    25    11    12 1   
    26    11    23 1   
    27    11    34 1   
    28    11    35 1   
    29    12    24 1   
    30    12    36 1   
    31    12    37 1   
    32    13    14 ar  
    33    13    21 ar  
    34    13    22 1   
    35    14    15 ar  
    36    14    38 1   
    37    15    16 ar  
    38    15    49 1   
    39    16    17 ar  
    40    16    39 1   
    41    17    21 ar  
    42    17    48 1   
    43    18    43 1   
    44    18    44 1   
    45    18    48 1   
    46    22    45 1   
    47    22    46 1   
    48    23    47 1   
    49    40    49 1   
    50    41    49 1   
    51    42    49 1   
    52    47    50 1   
    53    47    51 1   
    54    47    52 1   
    55    48    53 1   
    56    48    54 1   
@<TRIPOS>SUBSTRUCTURE
     1 KND         1 TEMP              0 ****  ****    0 ROOT
