@<TRIPOS>MOLECULE
KNE
   32    34     1     0     0
SMALL
abcg2


@<TRIPOS>ATOM
      1 C1          -5.7330     2.9700   -31.2890 c5         1 KNE       0.222300
      2 C2          -6.0930     3.4660   -29.9110 ca         1 KNE      -0.087300
      3 O3          -4.3380     2.6030   -31.3070 os         1 KNE      -0.305100
      4 C11         -5.5090     4.2820   -27.7160 ca         1 KNE      -0.114500
      5 C12         -7.8150     4.1400   -28.3520 ca         1 KNE      -0.114500
      6 C13         -2.9940     0.9220   -32.4140 ca         1 KNE      -0.131000
      7 C14         -5.4520    -0.3050   -33.0470 ca         1 KNE      -0.048000
      8 C15         -6.8490     4.4570   -27.4050 ca         1 KNE      -0.105000
      9 C16         -3.0280    -0.2630   -33.1430 ca         1 KNE      -0.068000
     10 C17         -4.2410    -0.8580   -33.4540 ca         1 KNE       0.079000
     11 C4          -6.5030     1.6910   -31.7110 c5         1 KNE      -0.045100
     12 C5          -5.9530     4.0710   -32.3350 c3         1 KNE       0.147800
     13 C6          -5.1310     3.7950   -28.9610 ca         1 KNE      -0.092000
     14 C7          -7.4390     3.6510   -29.5940 ca         1 KNE      -0.092000
     15 C8          -4.2000     1.4670   -32.0150 ca         1 KNE       0.134100
     16 C9          -5.4140     0.8690   -32.3230 ca         1 KNE      -0.172300
     17 N10         -5.1700     5.2550   -32.0560 n8         1 KNE      -0.987200
     18 CL18        -4.2550    -2.3300   -34.3770 cl         1 KNE      -0.209000
     19 H1          -4.7470     4.5270   -26.9860 ha         1 KNE       0.113500
     20 H2          -8.8650     4.2710   -28.1230 ha         1 KNE       0.113500
     21 H3          -2.0500     1.3920   -32.1740 ha         1 KNE       0.136000
     22 H4          -6.3920    -0.7820   -33.2920 ha         1 KNE       0.130000
     23 H5          -7.1400     4.8360   -26.4350 ha         1 KNE       0.114000
     24 H6          -2.1020    -0.7150   -33.4720 ha         1 KNE       0.130000
     25 H7          -7.3110     1.9200   -32.4080 hc         1 KNE       0.068700
     26 H8          -6.9480     1.1780   -30.8550 hc         1 KNE       0.068700
     27 H9          -7.0360     4.2470   -32.3920 h1         1 KNE       0.036700
     28 H10         -5.6570     3.6750   -33.3110 h1         1 KNE       0.036700
     29 H11         -4.0800     3.6670   -29.1790 ha         1 KNE       0.121000
     30 H12         -8.2060     3.4090   -30.3200 ha         1 KNE       0.121000
     31 H13         -5.1770     5.8590   -32.8670 hn         1 KNE       0.398500
     32 H14         -5.5980     5.7870   -31.3080 hn         1 KNE       0.398500
@<TRIPOS>BOND
     1     1     2 1   
     2     1     3 1   
     3     1    11 1   
     4     1    12 1   
     5     2    13 ar  
     6     2    14 ar  
     7     3    15 1   
     8     4     8 ar  
     9     4    13 ar  
    10     4    19 1   
    11     5     8 ar  
    12     5    14 ar  
    13     5    20 1   
    14     6     9 ar  
    15     6    15 ar  
    16     6    21 1   
    17     7    10 ar  
    18     7    16 ar  
    19     7    22 1   
    20     8    23 1   
    21     9    10 ar  
    22     9    24 1   
    23    10    18 1   
    24    11    16 1   
    25    11    25 1   
    26    11    26 1   
    27    12    17 1   
    28    12    27 1   
    29    12    28 1   
    30    13    29 1   
    31    14    30 1   
    32    15    16 ar  
    33    17    31 1   
    34    17    32 1   
@<TRIPOS>SUBSTRUCTURE
     1 KNE         1 TEMP              0 ****  ****    0 ROOT
