@<TRIPOS>MOLECULE
KNE
   32    34     1     0     0
SMALL
No Charge or Current Charge


@<TRIPOS>ATOM
      1 C1          -5.6610     3.0470   -31.3690 c5         1 KNE       0.222300
      2 C2          -6.0740     3.5080   -29.9530 ca         1 KNE      -0.087300
      3 O3          -4.2190     2.7390   -31.4260 os         1 KNE      -0.305100
      4 C11         -5.5590     3.9320   -27.5920 ca         1 KNE      -0.114500
      5 C12         -7.8020     4.3440   -28.4230 ca         1 KNE      -0.114500
      6 C13         -2.9310     0.9780   -32.5320 ca         1 KNE      -0.131000
      7 C14         -5.4070    -0.3570   -32.8630 ca         1 KNE      -0.048000
      8 C15         -6.8800     4.3480   -27.3650 ca         1 KNE      -0.105000
      9 C16         -2.9800    -0.2750   -33.1780 ca         1 KNE      -0.068000
     10 C17         -4.2160    -0.9390   -33.3430 ca         1 KNE       0.079000
     11 C4          -6.4420     1.6850   -31.6160 c5         1 KNE      -0.045100
     12 C5          -5.9680     4.1120   -32.4820 c3         1 KNE       0.147800
     13 C6          -5.1590     3.5140   -28.8730 ca         1 KNE      -0.092000
     14 C7          -7.4030     3.9260   -29.7040 ca         1 KNE      -0.092000
     15 C8          -4.1300     1.5400   -32.0730 ca         1 KNE       0.134100
     16 C9          -5.3330     0.8930   -32.2270 ca         1 KNE      -0.172300
     17 N10         -5.3260     5.4400   -32.2600 n8         1 KNE      -0.987200
     18 Cl18        -4.2680    -2.5030   -34.1460 cl         1 KNE      -0.209000
     19 H1          -4.8430     3.9320   -26.7730 ha         1 KNE       0.113500
     20 H2          -8.8280     4.6620   -28.2500 ha         1 KNE       0.113500
     21 H3          -1.9880     1.5000   -32.3940 ha         1 KNE       0.136000
     22 H4          -6.3590    -0.8690   -32.9790 ha         1 KNE       0.130000
     23 H5          -7.1890     4.6710   -26.3730 ha         1 KNE       0.114000
     24 H6          -2.0650    -0.7330   -33.5480 ha         1 KNE       0.130000
     25 H7          -7.3040     1.8050   -32.2820 hc         1 KNE       0.068700
     26 H8          -6.7990     1.2230   -30.6880 hc         1 KNE       0.068700
     27 H9          -7.0550     4.2640   -32.5390 h1         1 KNE       0.036700
     28 H10         -5.6370     3.7220   -33.4540 h1         1 KNE       0.036700
     29 H11         -4.1300     3.1950   -29.0150 ha         1 KNE       0.121000
     30 H12         -8.1370     3.9240   -30.5070 ha         1 KNE       0.121000
     31 H13         -5.6910     6.1110   -32.9460 hn         1 KNE       0.398500
     32 H14         -5.6440     5.8140   -31.3580 hn         1 KNE       0.398500
@<TRIPOS>BOND
     1     1     2 1   
     2     1     3 1   
     3     1    11 1   
     4     1    12 1   
     5     2    13 ar  
     6     2    14 ar  
     7     3    15 1   
     8     4     8 ar  
     9     4    13 ar  
    10     4    19 1   
    11     5     8 ar  
    12     5    14 ar  
    13     5    20 1   
    14     6     9 ar  
    15     6    15 ar  
    16     6    21 1   
    17     7    10 ar  
    18     7    16 ar  
    19     7    22 1   
    20     8    23 1   
    21     9    10 ar  
    22     9    24 1   
    23    10    18 1   
    24    11    16 1   
    25    11    25 1   
    26    11    26 1   
    27    12    17 1   
    28    12    27 1   
    29    12    28 1   
    30    13    29 1   
    31    14    30 1   
    32    15    16 ar  
    33    17    31 1   
    34    17    32 1   
@<TRIPOS>SUBSTRUCTURE
     1 KNE         1 TEMP              0 ****  ****    0 ROOT
