@<TRIPOS>MOLECULE
KNF
   49    52     1     0     0
SMALL
abcg2


@<TRIPOS>ATOM
      1 C5         135.0950   122.1670    97.8580 cc         1 KNF       0.250500
      2 C1         130.7670   118.4180    99.8770 ca         1 KNF      -0.299000
      3 N1         131.8830   118.0420    99.1930 na         1 KNF       0.517300
      4 O1         132.1030   116.8400    98.9350 o          1 KNF      -0.466000
      5 C2         132.7500   119.0050    98.8010 ca         1 KNF      -0.230300
      6 N2         131.3900   120.7130    99.7700 nb         1 KNF      -0.702000
      7 O2         138.9360   121.0830    93.6640 oh         1 KNF      -0.656000
      8 C3         132.4630   120.3230    99.1110 ca         1 KNF       0.495500
      9 N3         133.3440   121.3280    98.7160 na         1 KNF       0.138300
     10 O3         136.9650   123.3280    97.0640 o          1 KNF      -0.592100
     11 C4         130.5590   119.7480   100.1430 ca         1 KNF       0.390900
     12 N4         134.4700   121.0220    98.0620 nd         1 KNF      -0.523800
     13 N5         136.8610   121.0930    96.6590 ns         1 KNF      -0.494900
     14 C6         134.3500   123.2420    98.3750 cc         1 KNF      -0.160300
     15 C7         133.2380   122.6680    98.9160 cd         1 KNF      -0.091300
     16 C8         132.3420   123.6270    99.5760 cx         1 KNF      -0.061400
     17 C9         133.0640   124.9500    99.3620 cx         1 KNF      -0.125700
     18 C10        134.3340   124.7290    98.5320 c5         1 KNF       0.034900
     19 C11        136.3970   122.2480    97.1540 c          1 KNF       0.529600
     20 C12        138.1180   120.9660    95.9420 c3         1 KNF       0.117700
     21 C13        138.9380   119.7620    96.4790 c3         1 KNF      -0.048000
     22 C14        137.7740   120.9740    94.4490 c3         1 KNF       0.149600
     23 C15        138.9720   119.8390    98.0100 c3         1 KNF      -0.084433
     24 C16        140.3860   119.8340    95.9830 c3         1 KNF      -0.084433
     25 C17        138.3380   118.4200    96.0570 c3         1 KNF      -0.084433
     26 C18        132.9870   124.3530   100.7280 cx         1 KNF      -0.101400
     27 H1         130.0950   117.6290   100.1770 h4         1 KNF       0.181000
     28 H3         133.6250   118.6800    98.2630 h4         1 KNF       0.198000
     29 H4         138.6730   121.0610    92.7400 ho         1 KNF       0.445000
     30 H5         129.6700   120.0390   100.6870 h4         1 KNF       0.045100
     31 H6         136.2780   120.2760    96.7600 hn         1 KNF       0.329500
     32 H7         131.2670   123.5300    99.5240 hc         1 KNF       0.115700
     33 H8         132.4820   125.8430    99.1730 hc         1 KNF       0.091700
     34 H9         135.2230   125.1130    99.0340 hc         1 KNF       0.072700
     35 H10        134.2670   125.2380    97.5680 hc         1 KNF       0.072700
     36 H11        138.6920   121.8700    96.1590 h1         1 KNF       0.091700
     37 H12        137.1050   121.8270    94.2790 h1         1 KNF       0.022700
     38 H13        137.1970   120.0730    94.2020 h1         1 KNF       0.022700
     39 H14        139.3290   120.8140    98.3510 hc         1 KNF       0.036811
     40 H15        137.9930   119.6660    98.4580 hc         1 KNF       0.036811
     41 H16        139.6510   119.0820    98.4060 hc         1 KNF       0.036811
     42 H17        140.8460   120.7900    96.2450 hc         1 KNF       0.036811
     43 H18        140.9740   119.0460    96.4570 hc         1 KNF       0.036811
     44 H19        140.4670   119.7060    94.9070 hc         1 KNF       0.036811
     45 H20        137.3000   118.3020    96.3780 hc         1 KNF       0.036811
     46 H21        138.3720   118.2780    94.9760 hc         1 KNF       0.036811
     47 H22        138.9030   117.6030    96.5090 hc         1 KNF       0.036811
     48 H23        133.8770   123.9230   101.1720 hc         1 KNF       0.079700
     49 H24        132.3200   124.8280   101.4370 hc         1 KNF       0.079700
@<TRIPOS>BOND
     1     1    12 2   
     2     1    14 1   
     3     1    19 1   
     4     2     3 1   
     5     2    11 ar  
     6     2    27 1   
     7     3     4 1   
     8     3     5 2   
     9     5     8 ar  
    10     5    28 1   
    11     6     8 ar  
    12     6    11 ar  
    13     7    22 1   
    14     7    29 1   
    15     8     9 1   
    16     9    12 1   
    17     9    15 1   
    18    10    19 2   
    19    11    30 1   
    20    13    19 1   
    21    13    20 1   
    22    13    31 1   
    23    14    15 2   
    24    14    18 1   
    25    15    16 1   
    26    16    17 1   
    27    16    26 1   
    28    16    32 1   
    29    17    18 1   
    30    17    26 1   
    31    17    33 1   
    32    18    34 1   
    33    18    35 1   
    34    20    21 1   
    35    20    22 1   
    36    20    36 1   
    37    21    23 1   
    38    21    24 1   
    39    21    25 1   
    40    22    37 1   
    41    22    38 1   
    42    23    39 1   
    43    23    40 1   
    44    23    41 1   
    45    24    42 1   
    46    24    43 1   
    47    24    44 1   
    48    25    45 1   
    49    25    46 1   
    50    25    47 1   
    51    26    48 1   
    52    26    49 1   
@<TRIPOS>SUBSTRUCTURE
     1 KNF         1 TEMP              0 ****  ****    0 ROOT
