@<TRIPOS>MOLECULE
KNF
   49    52     1     0     0
SMALL
No Charge or Current Charge


@<TRIPOS>ATOM
      1 C5         134.9190   122.0540    97.5600 cc         1 KNF       0.250500
      2 C1         130.5530   118.5440   100.2790 ca         1 KNF      -0.299000
      3 N1         131.9140   118.4010   100.4070 na         1 KNF       0.517300
      4 O1         132.3850   117.4870   101.0900 o          1 KNF      -0.466000
      5 C2         132.7430   119.2930    99.7670 ca         1 KNF      -0.230300
      6 N2         130.8570   120.4660    98.8740 nb         1 KNF      -0.702000
      7 O2         139.4010   121.8130    93.8650 oh         1 KNF      -0.656000
      8 C3         132.2070   120.3350    98.9970 ca         1 KNF       0.495500
      9 N3         133.1370   121.1940    98.3830 na         1 KNF       0.138300
     10 O3         136.8190   123.3990    96.8640 o          1 KNF      -0.592100
     11 C4         130.0510   119.5860    99.5040 ca         1 KNF       0.390900
     12 N4         134.3270   120.8560    97.7060 nd         1 KNF      -0.523800
     13 N5         136.9050   121.1440    96.5470 ns         1 KNF      -0.494900
     14 C6         134.1030   123.0700    98.1030 cc         1 KNF      -0.160300
     15 C7         133.0020   122.5590    98.6120 cd         1 KNF      -0.091300
     16 C8         132.3400   123.4840    99.5310 cx         1 KNF      -0.061400
     17 C9         133.1450   124.7850    99.4300 cx         1 KNF      -0.125700
     18 C10        134.3920   124.4820    98.5090 c5         1 KNF       0.034900
     19 C11        136.2810   122.3020    96.9730 c          1 KNF       0.529600
     20 C12        138.2460   121.0700    95.9460 c3         1 KNF       0.117700
     21 C13        138.9590   119.7170    96.3490 c3         1 KNF      -0.048000
     22 C14        138.1450   121.3900    94.4180 c3         1 KNF       0.149600
     23 C15        139.0000   119.5990    97.9020 c3         1 KNF      -0.084433
     24 C16        140.4280   119.6750    95.8430 c3         1 KNF      -0.084433
     25 C17        138.2030   118.4800    95.7830 c3         1 KNF      -0.084433
     26 C18        133.0710   124.0260   100.7410 cx         1 KNF      -0.101400
     27 H1         129.9090   117.8330   100.7880 h4         1 KNF       0.181000
     28 H3         133.8130   119.1570    99.8850 h4         1 KNF       0.198000
     29 H4         139.2420   122.0250    92.9190 ho         1 KNF       0.445000
     30 H5         128.9780   119.7270    99.3810 h4         1 KNF       0.045100
     31 H6         136.3800   120.2860    96.6810 hn         1 KNF       0.329500
     32 H7         131.2560   123.5510    99.4670 hc         1 KNF       0.115700
     33 H8         132.6120   125.7300    99.3480 hc         1 KNF       0.091700
     34 H9         135.3420   124.5750    99.0490 hc         1 KNF       0.072700
     35 H10        134.4350   125.1480    97.6400 hc         1 KNF       0.072700
     36 H11        138.8380   121.8820    96.3900 h1         1 KNF       0.091700
     37 H12        137.4120   122.1960    94.2810 h1         1 KNF       0.022700
     38 H13        137.7590   120.5170    93.8770 h1         1 KNF       0.022700
     39 H14        139.4970   120.4700    98.3470 hc         1 KNF       0.036811
     40 H15        137.9940   119.5270    98.3320 hc         1 KNF       0.036811
     41 H16        139.5510   118.7030    98.2140 hc         1 KNF       0.036811
     42 H17        140.9760   120.5740    96.1500 hc         1 KNF       0.036811
     43 H18        140.9580   118.8040    96.2480 hc         1 KNF       0.036811
     44 H19        140.4740   119.5980    94.7510 hc         1 KNF       0.036811
     45 H20        137.1630   118.4500    96.1270 hc         1 KNF       0.036811
     46 H21        138.2000   118.4780    94.6870 hc         1 KNF       0.036811
     47 H22        138.6850   117.5500    96.1100 hc         1 KNF       0.036811
     48 H23        133.9560   123.4940   101.0810 hc         1 KNF       0.079700
     49 H24        132.4700   124.4530   101.5400 hc         1 KNF       0.079700
@<TRIPOS>BOND
     1     1    12 2   
     2     1    14 1   
     3     1    19 1   
     4     2     3 1   
     5     2    11 ar  
     6     2    27 1   
     7     3     4 1   
     8     3     5 2   
     9     5     8 ar  
    10     5    28 1   
    11     6     8 ar  
    12     6    11 ar  
    13     7    22 1   
    14     7    29 1   
    15     8     9 1   
    16     9    12 1   
    17     9    15 1   
    18    10    19 2   
    19    11    30 1   
    20    13    19 1   
    21    13    20 1   
    22    13    31 1   
    23    14    15 2   
    24    14    18 1   
    25    15    16 1   
    26    16    17 1   
    27    16    26 1   
    28    16    32 1   
    29    17    18 1   
    30    17    26 1   
    31    17    33 1   
    32    18    34 1   
    33    18    35 1   
    34    20    21 1   
    35    20    22 1   
    36    20    36 1   
    37    21    23 1   
    38    21    24 1   
    39    21    25 1   
    40    22    37 1   
    41    22    38 1   
    42    23    39 1   
    43    23    40 1   
    44    23    41 1   
    45    24    42 1   
    46    24    43 1   
    47    24    44 1   
    48    25    45 1   
    49    25    46 1   
    50    25    47 1   
    51    26    48 1   
    52    26    49 1   
@<TRIPOS>SUBSTRUCTURE
     1 KNF         1 TEMP              0 ****  ****    0 ROOT
