@<TRIPOS>MOLECULE
KNH
  105   105     1     0     0
SMALL
abcg2


@<TRIPOS>ATOM
      1 C10          5.2910    -1.8710     0.2290 c3         1 KNH      -0.104400
      2 C13          4.1220     1.3850    -0.3280 ce         1 KNH      -0.194000
      3 C15          2.2370     2.9160    -0.8000 c2         1 KNH      -0.196200
      4 C17          0.8980     4.1050     0.9540 c3         1 KNH      -0.068400
      5 C20         -2.1830     6.2220     0.0890 c          1 KNH       0.574100
      6 C21         -3.2650     5.4280     0.7830 c3         1 KNH      -0.186400
      7 C22         -4.1060     4.5940    -0.1880 c3         1 KNH      -0.063400
      8 C24         -5.8320     2.7200    -0.3660 c3         1 KNH      -0.072400
      9 C26         -4.9030     0.4210    -0.0020 c3         1 KNH      -0.068400
     10 C28         -3.9520    -1.8640     0.5160 c          1 KNH       0.599100
     11 C25         -6.1230     1.3280     0.2030 c3         1 KNH      -0.062700
     12 C23         -4.9290     3.5470     0.5480 c3         1 KNH      -0.080400
     13 C27         -4.8210    -0.7340     1.0030 c3         1 KNH      -0.113700
     14 C36         -7.3710     0.7170    -0.4260 c3         1 KNH      -0.089100
     15 C08          3.4300    -3.5590     0.6950 c3         1 KNH       0.178300
     16 C35         -4.2950    -0.2620     2.3630 c3         1 KNH      -0.087100
     17 C09          3.7990    -2.0880     0.4760 c3         1 KNH       0.173300
     18 C07          1.9380    -3.6950     0.9820 c3         1 KNH      -0.105400
     19 C16          1.5330     2.7790     0.5190 c3         1 KNH      -0.029500
     20 C18         -0.3270     4.5410     0.1570 c3         1 KNH      -0.070400
     21 C19         -0.7780     5.9530     0.5590 c3         1 KNH      -0.184400
     22 C06          1.4220    -5.1200     1.0820 c3         1 KNH       0.145300
     23 C02         -1.8720    -2.4040    -0.4320 c3         1 KNH       0.092300
     24 C11          5.7140    -0.3970     0.3160 c3         1 KNH      -0.044200
     25 C05         -0.0650    -5.1460     1.4480 c3         1 KNH       0.065000
     26 C43          0.5370     1.6090     0.4570 c3         1 KNH      -0.070400
     27 C32         -0.7240    -1.6790    -1.1230 c3         1 KNH      -0.078400
     28 C12          5.0690     0.5060    -0.7020 c2         1 KNH      -0.101400
     29 C03         -1.3420    -3.1490     0.7920 c          1 KNH       0.589100
     30 C33         -1.1460    -0.8000    -2.2940 c3         1 KNH      -0.069400
     31 C14          3.3610     2.2900    -1.1750 ce         1 KNH      -0.192000
     32 C44         -0.2350     1.3690     1.7470 c3         1 KNH      -0.094100
     33 C37          5.4750     0.2900    -2.1320 c3         1 KNH       0.188800
     34 C34          0.0620    -0.2380    -3.0320 c3         1 KNH      -0.092100
     35 C39          7.3340     0.0230    -3.5180 c3         1 KNH       0.144900
     36 N04         -0.8800    -4.3820     0.5300 ns         1 KNH      -0.491900
     37 O01         -2.8130    -1.4290    -0.0130 os         1 KNH      -0.420100
     38 O41          4.2100    -4.0430     1.7700 oh         1 KNH      -0.668000
     39 O40          3.0180    -1.6540    -0.6230 oh         1 KNH      -0.679000
     40 O42          1.6500    -5.7500    -0.1630 oh         1 KNH      -0.664000
     41 O31         -4.2270    -3.0360     0.6060 o          1 KNH      -0.489000
     42 O30         -2.4390     6.9940    -0.8100 o          1 KNH      -0.519100
     43 O29         -1.3060    -2.6150     1.8870 o          1 KNH      -0.593100
     44 O38          6.8760     0.3610    -2.2340 os         1 KNH      -0.449000
     45 H1           5.8640    -2.4190     0.9780 hc         1 KNH       0.059700
     46 H2           5.5590    -2.2990    -0.7420 hc         1 KNH       0.059700
     47 H3           3.8700     1.3990     0.7290 ha         1 KNH       0.174000
     48 H4           1.7600     3.5550    -1.5370 ha         1 KNH       0.172000
     49 H5           0.6130     4.0320     2.0070 hc         1 KNH       0.041700
     50 H6           1.6610     4.8890     0.9040 hc         1 KNH       0.041700
     51 H7          -2.8190     4.7750     1.5370 hc         1 KNH       0.059200
     52 H8          -3.9090     6.1270     1.3260 hc         1 KNH       0.059200
     53 H9          -4.7510     5.2480    -0.7790 hc         1 KNH       0.048700
     54 H10         -3.4500     4.0820    -0.9000 hc         1 KNH       0.048700
     55 H11         -5.3680     2.6030    -1.3530 hc         1 KNH       0.042200
     56 H12         -6.7660     3.2610    -0.5390 hc         1 KNH       0.042200
     57 H13         -4.9390     0.0370    -1.0270 hc         1 KNH       0.050700
     58 H14         -3.9800     1.0060     0.0630 hc         1 KNH       0.050700
     59 H15         -6.3120     1.4430     1.2780 hc         1 KNH       0.047700
     60 H16         -4.2390     2.8850     1.0840 hc         1 KNH       0.038700
     61 H17         -5.5380     4.0240     1.3220 hc         1 KNH       0.038700
     62 H18         -5.8170    -1.1620     1.1460 hc         1 KNH       0.078700
     63 H19         -7.2730     0.6650    -1.5130 hc         1 KNH       0.034700
     64 H20         -7.5540    -0.2970    -0.0640 hc         1 KNH       0.034700
     65 H21         -8.2580     1.3110    -0.2000 hc         1 KNH       0.034700
     66 H22          3.6760    -4.0980    -0.2310 h1         1 KNH       0.054700
     67 H23         -4.9210     0.5400     2.7520 hc         1 KNH       0.046367
     68 H24         -4.2960    -1.0680     3.0970 hc         1 KNH       0.046367
     69 H25         -3.2770     0.1190     2.2790 hc         1 KNH       0.046367
     70 H26          3.5170    -1.5370     1.3890 h1         1 KNH       0.038700
     71 H27          1.7070    -3.1750     1.9170 hc         1 KNH       0.070700
     72 H28          1.3870    -3.1800     0.1960 hc         1 KNH       0.070700
     73 H29          2.2680     2.5290     1.2920 hc         1 KNH       0.052700
     74 H30         -0.1260     4.5280    -0.9170 hc         1 KNH       0.046700
     75 H31         -1.1380     3.8250     0.3180 hc         1 KNH       0.046700
     76 H32         -0.0880     6.6960     0.1570 hc         1 KNH       0.063700
     77 H33         -0.7630     6.0350     1.6510 hc         1 KNH       0.063700
     78 H34          1.9460    -5.6520     1.8900 h1         1 KNH       0.033700
     79 H35         -2.3430    -3.0990    -1.1360 h1         1 KNH       0.065700
     80 H36          5.4810    -0.0290     1.3190 hc         1 KNH       0.056700
     81 H37          6.8000    -0.3440     0.2140 hc         1 KNH       0.056700
     82 H38         -0.4200    -6.1800     1.4630 h1         1 KNH       0.064700
     83 H39         -0.2060    -4.7490     2.4520 h1         1 KNH       0.064700
     84 H40         -0.1670     1.7570    -0.3690 hc         1 KNH       0.040200
     85 H41          1.1000     0.7050     0.2050 hc         1 KNH       0.040200
     86 H42         -0.1710    -1.0820    -0.3930 hc         1 KNH       0.062200
     87 H43         -0.0250    -2.4400    -1.4820 hc         1 KNH       0.062200
     88 H44         -1.7640    -1.3800    -2.9870 hc         1 KNH       0.043200
     89 H45         -1.7710     0.0210    -1.9350 hc         1 KNH       0.043200
     90 H46          3.7160     2.4620    -2.1850 ha         1 KNH       0.175000
     91 H47          0.4380     1.2790     2.6020 hc         1 KNH       0.037033
     92 H48         -0.9350     2.1780     1.9620 hc         1 KNH       0.037033
     93 H49         -0.8150     0.4460     1.6810 hc         1 KNH       0.037033
     94 H50          5.1190    -0.7020    -2.4560 h1         1 KNH       0.032700
     95 H51          5.0020     1.0170    -2.8030 h1         1 KNH       0.032700
     96 H52          0.7010     0.3430    -2.3630 hc         1 KNH       0.034367
     97 H53          0.6740    -1.0350    -3.4570 hc         1 KNH       0.034367
     98 H54         -0.2430     0.4180    -3.8480 hc         1 KNH       0.034367
     99 H55          8.4200     0.1130    -3.5230 h1         1 KNH       0.028700
    100 H56          7.0700    -1.0060    -3.7900 h1         1 KNH       0.028700
    101 H57          6.9280     0.6890    -4.2900 h1         1 KNH       0.028700
    102 H58         -0.9530    -4.7290    -0.4130 hn         1 KNH       0.319500
    103 H59          4.2070    -5.0030     1.7420 ho         1 KNH       0.445000
    104 H60          3.1030    -0.6980    -0.6910 ho         1 KNH       0.455000
    105 H61          1.4580    -6.6890    -0.0700 ho         1 KNH       0.440000
@<TRIPOS>BOND
     1     1    17 1   
     2     1    24 1   
     3     1    45 1   
     4     1    46 1   
     5     2    28 2   
     6     2    31 1   
     7     2    47 1   
     8     3    19 1   
     9     3    31 2   
    10     3    48 1   
    11     4    19 1   
    12     4    20 1   
    13     4    49 1   
    14     4    50 1   
    15     5     6 1   
    16     5    21 1   
    17     5    42 2   
    18     6     7 1   
    19     6    51 1   
    20     6    52 1   
    21     7    12 1   
    22     7    53 1   
    23     7    54 1   
    24     8    11 1   
    25     8    12 1   
    26     8    55 1   
    27     8    56 1   
    28     9    11 1   
    29     9    13 1   
    30     9    57 1   
    31     9    58 1   
    32    10    13 1   
    33    10    37 1   
    34    10    41 2   
    35    11    14 1   
    36    11    59 1   
    37    12    60 1   
    38    12    61 1   
    39    13    16 1   
    40    13    62 1   
    41    14    63 1   
    42    14    64 1   
    43    14    65 1   
    44    15    17 1   
    45    15    18 1   
    46    15    38 1   
    47    15    66 1   
    48    16    67 1   
    49    16    68 1   
    50    16    69 1   
    51    17    39 1   
    52    17    70 1   
    53    18    22 1   
    54    18    71 1   
    55    18    72 1   
    56    19    26 1   
    57    19    73 1   
    58    20    21 1   
    59    20    74 1   
    60    20    75 1   
    61    21    76 1   
    62    21    77 1   
    63    22    25 1   
    64    22    40 1   
    65    22    78 1   
    66    23    27 1   
    67    23    29 1   
    68    23    37 1   
    69    23    79 1   
    70    24    28 1   
    71    24    80 1   
    72    24    81 1   
    73    25    36 1   
    74    25    82 1   
    75    25    83 1   
    76    26    32 1   
    77    26    84 1   
    78    26    85 1   
    79    27    30 1   
    80    27    86 1   
    81    27    87 1   
    82    28    33 1   
    83    29    36 1   
    84    29    43 2   
    85    30    34 1   
    86    30    88 1   
    87    30    89 1   
    88    31    90 1   
    89    32    91 1   
    90    32    92 1   
    91    32    93 1   
    92    33    44 1   
    93    33    94 1   
    94    33    95 1   
    95    34    96 1   
    96    34    97 1   
    97    34    98 1   
    98    35    44 1   
    99    35    99 1   
   100    35   100 1   
   101    35   101 1   
   102    36   102 1   
   103    38   103 1   
   104    39   104 1   
   105    40   105 1   
@<TRIPOS>SUBSTRUCTURE
     1 KNH         1 TEMP              0 ****  ****    0 ROOT
