@<TRIPOS>MOLECULE
KNH
  105   105     1     0     0
SMALL
No Charge or Current Charge


@<TRIPOS>ATOM
      1 C10          5.3580    -2.1550     0.5410 c3         1 KNH      -0.104400
      2 C13          4.2020     1.0960     0.1060 ce         1 KNH      -0.194000
      3 C15          2.4380     2.7230    -0.6300 c2         1 KNH      -0.196200
      4 C17          0.5850     3.8760     0.6880 c3         1 KNH      -0.068400
      5 C20         -2.3320     5.5350    -1.4160 c          1 KNH       0.574100
      6 C21         -3.6870     6.1010    -0.9640 c3         1 KNH      -0.186400
      7 C22         -4.8310     5.0590    -1.0000 c3         1 KNH      -0.063400
      8 C24         -5.9120     2.9880     0.0640 c3         1 KNH      -0.072400
      9 C26         -4.8970     0.6530     0.5110 c3         1 KNH      -0.068400
     10 C28         -3.9810    -1.7280     0.7330 c          1 KNH       0.599100
     11 C25         -5.8170     1.7910     1.0530 c3         1 KNH      -0.062700
     12 C23         -4.6300     3.8480    -0.0590 c3         1 KNH      -0.080400
     13 C27         -4.6600    -0.5560     1.4680 c3         1 KNH      -0.113700
     14 C36         -7.2390     1.2770     1.3980 c3         1 KNH      -0.089100
     15 C08          3.4020    -3.9050     0.5530 c3         1 KNH       0.178300
     16 C35         -3.8670    -0.1690     2.7410 c3         1 KNH      -0.087100
     17 C09          3.8240    -2.3940     0.6230 c3         1 KNH       0.173300
     18 C07          1.8670    -4.0860     0.6880 c3         1 KNH      -0.105400
     19 C16          1.4990     2.6220     0.5690 c3         1 KNH      -0.029500
     20 C18         -0.5460     3.9920    -0.3680 c3         1 KNH      -0.070400
     21 C19         -1.2420     5.3740    -0.3410 c3         1 KNH      -0.184400
     22 C06          1.3270    -5.5190     0.4400 c3         1 KNH       0.145300
     23 C02         -2.0030    -2.4030    -0.4910 c3         1 KNH       0.092300
     24 C11          5.8130    -0.6980     0.8350 c3         1 KNH      -0.044200
     25 C05         -0.2050    -5.6440     0.6900 c3         1 KNH       0.065000
     26 C43          0.7190     1.2790     0.5620 c3         1 KNH      -0.070400
     27 C32         -0.8810    -1.6920    -1.2900 c3         1 KNH      -0.078400
     28 C12          5.2890     0.3300    -0.1590 c2         1 KNH      -0.101400
     29 C03         -1.3980    -3.4230     0.5210 c          1 KNH       0.589100
     30 C33         -1.3870    -0.6290    -2.2950 c3         1 KNH      -0.069400
     31 C14          3.6050     2.0650    -0.8270 ce         1 KNH      -0.192000
     32 C44         -0.0930     0.9980     1.8420 c3         1 KNH      -0.094100
     33 C37          6.0780     0.3530    -1.4650 c3         1 KNH       0.188800
     34 C34         -0.2560    -0.0240    -3.1520 c3         1 KNH      -0.092100
     35 C39          7.7260     1.6740    -2.6390 c3         1 KNH       0.144900
     36 N04         -0.9960    -4.6280    -0.0270 ns         1 KNH      -0.491900
     37 O01         -2.7760    -1.3750     0.1780 os         1 KNH      -0.420100
     38 O41          4.0450    -4.6580     1.5980 oh         1 KNH      -0.668000
     39 O40          3.1980    -1.6730    -0.4490 oh         1 KNH      -0.679000
     40 O42          1.6230    -5.9010    -0.9120 oh         1 KNH      -0.664000
     41 O31         -4.4810    -2.8420     0.6390 o          1 KNH      -0.489000
     42 O30         -2.1010     5.3150    -2.5980 o          1 KNH      -0.519100
     43 O29         -1.3000    -3.2010     1.7220 o          1 KNH      -0.593100
     44 O38          6.9300     1.5100    -1.4540 os         1 KNH      -0.449000
     45 H1           5.8580    -2.8040     1.2700 hc         1 KNH       0.059700
     46 H2           5.7240    -2.4680    -0.4450 hc         1 KNH       0.059700
     47 H3           3.7100     0.9910     1.0740 ha         1 KNH       0.174000
     48 H4           2.1060     3.4190    -1.4000 ha         1 KNH       0.172000
     49 H5           0.1330     3.8990     1.6880 hc         1 KNH       0.041700
     50 H6           1.2220     4.7680     0.6300 hc         1 KNH       0.041700
     51 H7          -3.6150     6.4900     0.0580 hc         1 KNH       0.059200
     52 H8          -3.9590     6.9190    -1.6420 hc         1 KNH       0.059200
     53 H9          -5.7630     5.5710    -0.7270 hc         1 KNH       0.048700
     54 H10         -4.9650     4.6990    -2.0280 hc         1 KNH       0.048700
     55 H11         -6.2000     2.6180    -0.9280 hc         1 KNH       0.042200
     56 H12         -6.7230     3.6500     0.3920 hc         1 KNH       0.042200
     57 H13         -5.3300     0.2760    -0.4250 hc         1 KNH       0.050700
     58 H14         -3.9190     1.0720     0.2440 hc         1 KNH       0.050700
     59 H15         -5.3810     2.1780     1.9820 hc         1 KNH       0.047700
     60 H16         -3.8000     3.2380    -0.4350 hc         1 KNH       0.038700
     61 H17         -4.3430     4.2070     0.9370 hc         1 KNH       0.038700
     62 H18         -5.6290    -0.9490     1.7920 hc         1 KNH       0.078700
     63 H19         -7.7020     0.7920     0.5300 hc         1 KNH       0.034700
     64 H20         -7.2160     0.5610     2.2270 hc         1 KNH       0.034700
     65 H21         -7.8870     2.1040     1.7110 hc         1 KNH       0.034700
     66 H22          3.7160    -4.2870    -0.4290 h1         1 KNH       0.054700
     67 H23         -4.4320     0.5400     3.3580 hc         1 KNH       0.046367
     68 H24         -3.6650    -1.0570     3.3530 hc         1 KNH       0.046367
     69 H25         -2.9080     0.2910     2.4800 hc         1 KNH       0.046367
     70 H26          3.4730    -1.9960     1.5850 h1         1 KNH       0.038700
     71 H27          1.5600    -3.7560     1.6880 hc         1 KNH       0.070700
     72 H28          1.3780    -3.4120    -0.0220 hc         1 KNH       0.070700
     73 H29          2.1220     2.6250     1.4720 hc         1 KNH       0.052700
     74 H30         -0.1390     3.8180    -1.3710 hc         1 KNH       0.046700
     75 H31         -1.2960     3.2120    -0.1910 hc         1 KNH       0.046700
     76 H32         -0.4900     6.1490    -0.5260 hc         1 KNH       0.063700
     77 H33         -1.6610     5.5610     0.6550 hc         1 KNH       0.063700
     78 H34          1.8300    -6.2060     1.1330 h1         1 KNH       0.033700
     79 H35         -2.6320    -2.9590    -1.1990 h1         1 KNH       0.065700
     80 H36          5.4950    -0.4340     1.8510 hc         1 KNH       0.056700
     81 H37          6.9100    -0.6680     0.8580 hc         1 KNH       0.056700
     82 H38         -0.5480    -6.6410     0.3820 h1         1 KNH       0.064700
     83 H39         -0.3960    -5.5580     1.7680 h1         1 KNH       0.064700
     84 H40          0.0470     1.2460    -0.3020 hc         1 KNH       0.040200
     85 H41          1.4280     0.4540     0.4270 hc         1 KNH       0.040200
     86 H42         -0.1810    -1.2260    -0.5860 hc         1 KNH       0.062200
     87 H43         -0.3070    -2.4490    -1.8380 hc         1 KNH       0.062200
     88 H44         -2.1330    -1.0810    -2.9590 hc         1 KNH       0.043200
     89 H45         -1.8900     0.1820    -1.7530 hc         1 KNH       0.043200
     90 H46          4.1570     2.2600    -1.7490 ha         1 KNH       0.175000
     91 H47          0.5510     1.0380     2.7290 hc         1 KNH       0.037033
     92 H48         -0.9020     1.7270     1.9650 hc         1 KNH       0.037033
     93 H49         -0.5420    -0.0010     1.7920 hc         1 KNH       0.037033
     94 H50          6.6790    -0.5610    -1.5680 h1         1 KNH       0.032700
     95 H51          5.3860     0.3860    -2.3170 h1         1 KNH       0.032700
     96 H52          0.5080     0.4440    -2.5200 hc         1 KNH       0.034367
     97 H53          0.2260    -0.7990    -3.7590 hc         1 KNH       0.034367
     98 H54         -0.6570     0.7410    -3.8270 hc         1 KNH       0.034367
     99 H55          8.3480     2.5740    -2.5590 h1         1 KNH       0.028700
    100 H56          8.3890     0.8110    -2.7850 h1         1 KNH       0.028700
    101 H57          7.0870     1.7770    -3.5260 h1         1 KNH       0.028700
    102 H58         -1.1190    -4.7410    -1.0270 hn         1 KNH       0.319500
    103 H59          4.0180    -5.6010     1.3260 ho         1 KNH       0.445000
    104 H60          3.5770    -0.7650    -0.4270 ho         1 KNH       0.455000
    105 H61          1.3780    -6.8470    -1.0100 ho         1 KNH       0.440000
@<TRIPOS>BOND
     1     1    17 1   
     2     1    24 1   
     3     1    45 1   
     4     1    46 1   
     5     2    28 2   
     6     2    31 1   
     7     2    47 1   
     8     3    19 1   
     9     3    31 2   
    10     3    48 1   
    11     4    19 1   
    12     4    20 1   
    13     4    49 1   
    14     4    50 1   
    15     5     6 1   
    16     5    21 1   
    17     5    42 2   
    18     6     7 1   
    19     6    51 1   
    20     6    52 1   
    21     7    12 1   
    22     7    53 1   
    23     7    54 1   
    24     8    11 1   
    25     8    12 1   
    26     8    55 1   
    27     8    56 1   
    28     9    11 1   
    29     9    13 1   
    30     9    57 1   
    31     9    58 1   
    32    10    13 1   
    33    10    37 1   
    34    10    41 2   
    35    11    14 1   
    36    11    59 1   
    37    12    60 1   
    38    12    61 1   
    39    13    16 1   
    40    13    62 1   
    41    14    63 1   
    42    14    64 1   
    43    14    65 1   
    44    15    17 1   
    45    15    18 1   
    46    15    38 1   
    47    15    66 1   
    48    16    67 1   
    49    16    68 1   
    50    16    69 1   
    51    17    39 1   
    52    17    70 1   
    53    18    22 1   
    54    18    71 1   
    55    18    72 1   
    56    19    26 1   
    57    19    73 1   
    58    20    21 1   
    59    20    74 1   
    60    20    75 1   
    61    21    76 1   
    62    21    77 1   
    63    22    25 1   
    64    22    40 1   
    65    22    78 1   
    66    23    27 1   
    67    23    29 1   
    68    23    37 1   
    69    23    79 1   
    70    24    28 1   
    71    24    80 1   
    72    24    81 1   
    73    25    36 1   
    74    25    82 1   
    75    25    83 1   
    76    26    32 1   
    77    26    84 1   
    78    26    85 1   
    79    27    30 1   
    80    27    86 1   
    81    27    87 1   
    82    28    33 1   
    83    29    36 1   
    84    29    43 2   
    85    30    34 1   
    86    30    88 1   
    87    30    89 1   
    88    31    90 1   
    89    32    91 1   
    90    32    92 1   
    91    32    93 1   
    92    33    44 1   
    93    33    94 1   
    94    33    95 1   
    95    34    96 1   
    96    34    97 1   
    97    34    98 1   
    98    35    44 1   
    99    35    99 1   
   100    35   100 1   
   101    35   101 1   
   102    36   102 1   
   103    38   103 1   
   104    39   104 1   
   105    40   105 1   
@<TRIPOS>SUBSTRUCTURE
     1 KNH         1 TEMP              0 ****  ****    0 ROOT
