@<TRIPOS>MOLECULE
KNI
   87    90     1     0     0
SMALL
No Charge or Current Charge


@<TRIPOS>ATOM
      1 C1           5.5170     2.6160    -3.8350 ca         1 KNI       0.308900
      2 C2           5.1280     1.7530    -2.7960 ca         1 KNI      -0.119000
      3 C3           5.6050     1.9850    -1.4900 ca         1 KNI      -0.033000
      4 C4           6.4590     3.0900    -1.2900 ca         1 KNI      -0.069000
      5 C5           6.7960     3.9010    -2.3930 ca         1 KNI       0.348900
      6 C6           5.2480     1.1570    -0.4020 ca         1 KNI       0.151100
      7 C7           5.7540     1.4490     0.8860 ca         1 KNI      -0.202000
      8 C8           6.6050     2.5510     1.0800 ca         1 KNI      -0.074000
      9 C9           6.9580     3.3700    -0.0040 ca         1 KNI      -0.119000
     10 C10          3.8810    -0.7270     0.4460 c3         1 KNI       0.074600
     11 C11          2.8460    -1.7570    -0.0550 c          1 KNI       0.613100
     12 N1           6.3380     3.6750    -3.6480 nb         1 KNI      -0.655000
     13 O1           4.3990     0.0900    -0.6270 os         1 KNI      -0.308100
     14 O3           2.5640    -1.9280    -1.2340 o          1 KNI      -0.574100
     15 N2           2.2010    -2.4600     0.9400 ns         1 KNI      -0.505900
     16 C26          1.2320    -3.5690     0.7220 c3         1 KNI       0.047700
     17 C12          1.2440    -4.5450     1.9220 c3         1 KNI       0.051600
     18 S1           2.9460    -5.2200     2.2240 ss         1 KNI      -0.420000
     19 C27          2.6030    -6.3100     3.6790 c3         1 KNI       0.036900
     20 C13         -0.2010    -3.0320     0.4210 c          1 KNI       0.580100
     21 O6          -1.2170    -3.5340     0.8850 o          1 KNI      -0.625100
     22 C17         -3.8680    -1.2360    -1.5420 c          1 KNI       0.580100
     23 N3          -0.2570    -1.8830    -0.3350 ns         1 KNI      -0.479900
     24 O4          -4.3290    -0.6660    -2.5260 o          1 KNI      -0.611100
     25 C15         -2.4300    -1.8420    -1.5920 c3         1 KNI       0.086300
     26 C28         -0.0460     1.0190    -0.1500 ca         1 KNI      -0.087300
     27 C16         -1.1050     0.3470    -1.0300 c3         1 KNI      -0.048100
     28 C31          1.9110     2.2880     1.4430 ca         1 KNI      -0.121000
     29 C14         -1.4680    -1.1040    -0.6050 c3         1 KNI       0.096700
     30 O2          -1.8950    -1.8380    -2.9450 oh         1 KNI      -0.648000
     31 C29          1.0390     1.6920    -0.7490 ca         1 KNI      -0.102500
     32 C33         -0.1440     0.9960     1.2570 ca         1 KNI      -0.102500
     33 C30          2.0100     2.3270     0.0440 ca         1 KNI      -0.115000
     34 C32          0.8340     1.6210     2.0490 ca         1 KNI      -0.115000
     35 N4          -4.6030    -1.2970    -0.3370 n          1 KNI      -0.387800
     36 C20         -4.3960    -2.3890     0.6530 c5         1 KNI       0.240000
     37 C18         -5.8950    -0.5420    -0.1920 c5         1 KNI       0.020700
     38 C19         -6.3710    -0.8580     1.2530 c5         1 KNI       0.045600
     39 S2          -6.0580    -2.6620     1.4150 ss         1 KNI      -0.406000
     40 C21         -5.7530     1.0050    -0.3070 c          1 KNI       0.605100
     41 O5          -4.7300     1.6580    -0.1450 o          1 KNI      -0.607100
     42 N5          -6.9870     1.5490    -0.6290 ns         1 KNI      -0.494900
     43 C22         -7.3020     2.9690    -0.8300 c3         1 KNI       0.138400
     44 C23         -6.4830     3.5450    -2.0130 c3         1 KNI      -0.104433
     45 C24         -7.0280     3.7750     0.4640 c3         1 KNI      -0.104433
     46 C25         -8.8080     3.0560    -1.1690 c3         1 KNI      -0.104433
     47 H1           5.1600     2.4530    -4.8510 h4         1 KNI       0.021100
     48 H2           4.4650     0.9220    -3.0170 ha         1 KNI       0.146000
     49 H5           7.4540     4.7610    -2.2710 h4         1 KNI       0.018100
     50 H7           5.5010     0.8350     1.7440 ha         1 KNI       0.116000
     51 H8           6.9920     2.7700     2.0730 ha         1 KNI       0.115000
     52 H9           7.6170     4.2220     0.1560 ha         1 KNI       0.121000
     53 H101         3.3800    -0.1050     1.1980 h1         1 KNI       0.059200
     54 H102         4.6890    -1.2800     0.9410 h1         1 KNI       0.059200
     55 HN2          2.4860    -2.2590     1.8930 hn         1 KNI       0.325500
     56 H26          1.5410    -4.1240    -0.1740 h1         1 KNI       0.103700
     57 H121         0.8940    -4.0270     2.8240 h1         1 KNI       0.078200
     58 H122         0.5610    -5.3820     1.7220 h1         1 KNI       0.078200
     59 H271         2.2100    -5.7110     4.5110 h1         1 KNI       0.062367
     60 H272         1.8650    -7.0760     3.4070 h1         1 KNI       0.062367
     61 H273         3.5290    -6.8030     3.9990 h1         1 KNI       0.062367
     62 HN3          0.6250    -1.5550    -0.7170 hn         1 KNI       0.342500
     63 H15         -2.5310    -2.8800    -1.2570 h1         1 KNI       0.088700
     64 H161        -0.7540     0.3360    -2.0690 hc         1 KNI       0.070700
     65 H162        -2.0160     0.9570    -1.0290 hc         1 KNI       0.070700
     66 H31          2.6660     2.7760     2.0560 ha         1 KNI       0.112000
     67 H14         -1.9900    -1.0200     0.3560 h1         1 KNI       0.078700
     68 HO2         -2.5540    -1.3500    -3.4950 ho         1 KNI       0.473000
     69 H29          1.1320     1.7280    -1.8330 ha         1 KNI       0.123000
     70 H33         -0.9790     0.4960     1.7430 ha         1 KNI       0.123000
     71 H30          2.8410     2.8470    -0.4280 ha         1 KNI       0.116000
     72 H32          0.7520     1.5950     3.1340 ha         1 KNI       0.116000
     73 H201        -4.0580    -3.2970     0.1380 h2         1 KNI       0.093200
     74 H202        -3.6800    -2.0300     1.4030 h2         1 KNI       0.093200
     75 H18         -6.6230    -0.8930    -0.9350 h1         1 KNI       0.086700
     76 H191        -5.7810    -0.3130     2.0040 h1         1 KNI       0.087200
     77 H192        -7.4330    -0.6250     1.4100 h1         1 KNI       0.087200
     78 HN5         -7.7470     0.8900    -0.7430 hn         1 KNI       0.313500
     79 H231        -5.4100     3.5590    -1.7930 hc         1 KNI       0.046144
     80 H232        -6.6370     2.9480    -2.9200 hc         1 KNI       0.046144
     81 H233        -6.7880     4.5750    -2.2300 hc         1 KNI       0.046144
     82 H241        -7.3550     4.8150     0.3500 hc         1 KNI       0.046144
     83 H242        -7.5690     3.3420     1.3150 hc         1 KNI       0.046144
     84 H243        -5.9610     3.7910     0.7130 hc         1 KNI       0.046144
     85 H251        -9.0390     2.4900    -2.0800 hc         1 KNI       0.046144
     86 H252        -9.4190     2.6500    -0.3530 hc         1 KNI       0.046144
     87 H253        -9.1140     4.0970    -1.3330 hc         1 KNI       0.046144
@<TRIPOS>BOND
     1     1     2 ar  
     2     1    12 ar  
     3     1    47 1   
     4     2     3 ar  
     5     2    48 1   
     6     3     4 ar  
     7     3     6 ar  
     8     4     5 ar  
     9     4     9 ar  
    10     5    12 ar  
    11     5    49 1   
    12     6     7 ar  
    13     6    13 1   
    14     7     8 ar  
    15     7    50 1   
    16     8     9 ar  
    17     8    51 1   
    18     9    52 1   
    19    10    11 1   
    20    10    13 1   
    21    10    53 1   
    22    10    54 1   
    23    11    14 2   
    24    11    15 1   
    25    15    16 1   
    26    15    55 1   
    27    16    17 1   
    28    16    20 1   
    29    16    56 1   
    30    17    18 1   
    31    17    57 1   
    32    17    58 1   
    33    18    19 1   
    34    19    59 1   
    35    19    60 1   
    36    19    61 1   
    37    20    21 2   
    38    20    23 1   
    39    22    24 2   
    40    22    25 1   
    41    22    35 1   
    42    23    29 1   
    43    23    62 1   
    44    25    29 1   
    45    25    30 1   
    46    25    63 1   
    47    26    27 1   
    48    26    31 ar  
    49    26    32 ar  
    50    27    29 1   
    51    27    64 1   
    52    27    65 1   
    53    28    33 ar  
    54    28    34 ar  
    55    28    66 1   
    56    29    67 1   
    57    30    68 1   
    58    31    33 ar  
    59    31    69 1   
    60    32    34 ar  
    61    32    70 1   
    62    33    71 1   
    63    34    72 1   
    64    35    36 1   
    65    35    37 1   
    66    36    39 1   
    67    36    73 1   
    68    36    74 1   
    69    37    38 1   
    70    37    40 1   
    71    37    75 1   
    72    38    39 1   
    73    38    76 1   
    74    38    77 1   
    75    40    41 2   
    76    40    42 1   
    77    42    43 1   
    78    42    78 1   
    79    43    44 1   
    80    43    45 1   
    81    43    46 1   
    82    44    79 1   
    83    44    80 1   
    84    44    81 1   
    85    45    82 1   
    86    45    83 1   
    87    45    84 1   
    88    46    85 1   
    89    46    86 1   
    90    46    87 1   
@<TRIPOS>SUBSTRUCTURE
     1 KNI         1 TEMP              0 ****  ****    0 ROOT
