@<TRIPOS>MOLECULE
KNI
   87    90     1     0     0
SMALL
abcg2


@<TRIPOS>ATOM
      1 C1           6.1080     2.3140    -3.3220 ca         1 KNI       0.308900
      2 C2           5.5390     1.5600    -2.3330 ca         1 KNI      -0.119000
      3 C3           5.6030     2.0190    -1.0010 ca         1 KNI      -0.033000
      4 C4           6.2540     3.2490    -0.7580 ca         1 KNI      -0.069000
      5 C5           6.8020     3.9260    -1.8730 ca         1 KNI       0.348900
      6 C6           5.0370     1.3140     0.0990 ca         1 KNI       0.151100
      7 C7           5.1270     1.8360     1.3660 ca         1 KNI      -0.202000
      8 C8           5.7800     3.0680     1.5850 ca         1 KNI      -0.074000
      9 C9           6.3370     3.7680     0.5530 ca         1 KNI      -0.119000
     10 C10          3.6720    -0.4930     0.7520 c3         1 KNI       0.074600
     11 C11          2.8600    -1.5730     0.0600 c          1 KNI       0.613100
     12 N1           6.7380     3.4890    -3.1010 nb         1 KNI      -0.655000
     13 O1           4.4350     0.1590    -0.2220 os         1 KNI      -0.308100
     14 O3           2.7770    -1.6650    -1.1490 o          1 KNI      -0.574100
     15 N2           2.2360    -2.3960     0.9250 ns         1 KNI      -0.505900
     16 C26          1.2970    -3.4160     0.5120 c3         1 KNI       0.047700
     17 C12          1.4310    -4.6610     1.3710 c3         1 KNI       0.051600
     18 S1           3.1330    -5.2810     1.2700 ss         1 KNI      -0.420000
     19 C27          2.9030    -6.8710     2.0950 c3         1 KNI       0.036900
     20 C13         -0.1230    -2.8400     0.5850 c          1 KNI       0.580100
     21 O6          -0.8570    -3.0420     1.5400 o          1 KNI      -0.625100
     22 C17         -4.1710    -1.5490    -0.9390 c          1 KNI       0.580100
     23 N3          -0.4570    -2.0640    -0.4560 ns         1 KNI      -0.479900
     24 O4          -4.7060    -1.1110    -1.9500 o          1 KNI      -0.611100
     25 C15         -2.8270    -2.2590    -1.0530 c3         1 KNI       0.086300
     26 C28         -0.5180     0.8670    -0.7630 ca         1 KNI      -0.087300
     27 C16         -1.5300    -0.0720    -1.3590 c3         1 KNI      -0.048100
     28 C31          1.3490     2.6170     0.3700 ca         1 KNI      -0.121000
     29 C14         -1.7060    -1.3380    -0.5180 c3         1 KNI       0.096700
     30 O2          -2.5970    -2.6290    -2.3770 oh         1 KNI      -0.648000
     31 C29          0.7240     1.0620    -1.3570 ca         1 KNI      -0.102500
     32 C33         -0.8150     1.5640     0.4080 ca         1 KNI      -0.102500
     33 C30          1.6500     1.9370    -0.8010 ca         1 KNI      -0.115000
     34 C32          0.1120     2.4260     0.9750 ca         1 KNI      -0.115000
     35 N4          -4.7100    -1.3730     0.2780 n          1 KNI      -0.387800
     36 C20         -4.2290    -1.9330     1.5240 c5         1 KNI       0.240000
     37 C18         -5.9080    -0.5610     0.3950 c5         1 KNI       0.020700
     38 C19         -6.3510    -0.6210     1.8640 c5         1 KNI       0.045600
     39 S2          -5.7340    -2.2050     2.4910 ss         1 KNI      -0.406000
     40 C21         -5.5940     0.8920     0.0210 c          1 KNI       0.605100
     41 O5          -4.4920     1.3630     0.2500 o          1 KNI      -0.607100
     42 N5          -6.6360     1.5590    -0.4830 ns         1 KNI      -0.494900
     43 C22         -6.6580     2.9770    -0.8670 c3         1 KNI       0.138400
     44 C23         -5.6640     3.2370    -2.0010 c3         1 KNI      -0.104433
     45 C24         -6.3560     3.8670     0.3390 c3         1 KNI      -0.104433
     46 C25         -8.0750     3.2650    -1.3570 c3         1 KNI      -0.104433
     47 H1           6.0700     1.9820    -4.3530 h4         1 KNI       0.021100
     48 H2           5.0490     0.6280    -2.5810 ha         1 KNI       0.146000
     49 H5           7.3110     4.8720    -1.7080 h4         1 KNI       0.018100
     50 H7           4.7050     1.3190     2.2170 ha         1 KNI       0.116000
     51 H8           5.8350     3.4500     2.5950 ha         1 KNI       0.115000
     52 H9           6.8370     4.7130     0.7260 ha         1 KNI       0.121000
     53 H101         2.9750     0.1970     1.2440 h1         1 KNI       0.059200
     54 H102         4.3030    -0.9340     1.5330 h1         1 KNI       0.059200
     55 HN2          2.3200    -2.2180     1.9160 hn         1 KNI       0.325500
     56 H26          1.5270    -3.6750    -0.5230 h1         1 KNI       0.103700
     57 H121         1.1710    -4.4540     2.4100 h1         1 KNI       0.078200
     58 H122         0.7480    -5.4280     1.0000 h1         1 KNI       0.078200
     59 H271         2.5540    -6.7360     3.1180 h1         1 KNI       0.062367
     60 H272         2.1990    -7.5000     1.5520 h1         1 KNI       0.062367
     61 H273         3.8700    -7.3690     2.1210 h1         1 KNI       0.062367
     62 HN3          0.1880    -1.9750    -1.2270 hn         1 KNI       0.342500
     63 H15         -2.8310    -3.1670    -0.4410 h1         1 KNI       0.088700
     64 H161        -1.2380    -0.3410    -2.3780 hc         1 KNI       0.070700
     65 H162        -2.4930     0.4380    -1.4280 hc         1 KNI       0.070700
     66 H31          2.0710     3.2950     0.8070 ha         1 KNI       0.112000
     67 H14         -1.9590    -1.0380     0.5010 h1         1 KNI       0.078700
     68 HO2         -3.1600    -2.0720    -2.9330 ho         1 KNI       0.473000
     69 H29          0.9700     0.5370    -2.2720 ha         1 KNI       0.123000
     70 H33         -1.7880     1.4400     0.8700 ha         1 KNI       0.123000
     71 H30          2.6040     2.0890    -1.2870 ha         1 KNI       0.116000
     72 H32         -0.1350     2.9590     1.8850 ha         1 KNI       0.116000
     73 H201        -3.7110    -2.8780     1.3830 h2         1 KNI       0.093200
     74 H202        -3.5700    -1.2400     2.0490 h2         1 KNI       0.093200
     75 H18         -6.6940    -0.9730    -0.2420 h1         1 KNI       0.086700
     76 H191        -5.9200     0.1930     2.4490 h1         1 KNI       0.087200
     77 H192        -7.4340    -0.5800     1.9550 h1         1 KNI       0.087200
     78 HN5         -7.4740     1.0300    -0.6680 hn         1 KNI       0.313500
     79 H231        -4.6400     3.0340    -1.6930 hc         1 KNI       0.046144
     80 H232        -5.8950     2.6110    -2.8640 hc         1 KNI       0.046144
     81 H233        -5.7250     4.2790    -2.3180 hc         1 KNI       0.046144
     82 H241        -6.4430     4.9170     0.0540 hc         1 KNI       0.046144
     83 H242        -7.0680     3.6790     1.1450 hc         1 KNI       0.046144
     84 H243        -5.3500     3.7050     0.7230 hc         1 KNI       0.046144
     85 H251        -8.3360     2.6440    -2.2170 hc         1 KNI       0.046144
     86 H252        -8.8100     3.0890    -0.5700 hc         1 KNI       0.046144
     87 H253        -8.1570     4.3080    -1.6640 hc         1 KNI       0.046144
@<TRIPOS>BOND
     1     1     2 ar  
     2     1    12 ar  
     3     1    47 1   
     4     2     3 ar  
     5     2    48 1   
     6     3     4 ar  
     7     3     6 ar  
     8     4     5 ar  
     9     4     9 ar  
    10     5    12 ar  
    11     5    49 1   
    12     6     7 ar  
    13     6    13 1   
    14     7     8 ar  
    15     7    50 1   
    16     8     9 ar  
    17     8    51 1   
    18     9    52 1   
    19    10    11 1   
    20    10    13 1   
    21    10    53 1   
    22    10    54 1   
    23    11    14 2   
    24    11    15 1   
    25    15    16 1   
    26    15    55 1   
    27    16    17 1   
    28    16    20 1   
    29    16    56 1   
    30    17    18 1   
    31    17    57 1   
    32    17    58 1   
    33    18    19 1   
    34    19    59 1   
    35    19    60 1   
    36    19    61 1   
    37    20    21 2   
    38    20    23 1   
    39    22    24 2   
    40    22    25 1   
    41    22    35 1   
    42    23    29 1   
    43    23    62 1   
    44    25    29 1   
    45    25    30 1   
    46    25    63 1   
    47    26    27 1   
    48    26    31 ar  
    49    26    32 ar  
    50    27    29 1   
    51    27    64 1   
    52    27    65 1   
    53    28    33 ar  
    54    28    34 ar  
    55    28    66 1   
    56    29    67 1   
    57    30    68 1   
    58    31    33 ar  
    59    31    69 1   
    60    32    34 ar  
    61    32    70 1   
    62    33    71 1   
    63    34    72 1   
    64    35    36 1   
    65    35    37 1   
    66    36    39 1   
    67    36    73 1   
    68    36    74 1   
    69    37    38 1   
    70    37    40 1   
    71    37    75 1   
    72    38    39 1   
    73    38    76 1   
    74    38    77 1   
    75    40    41 2   
    76    40    42 1   
    77    42    43 1   
    78    42    78 1   
    79    43    44 1   
    80    43    45 1   
    81    43    46 1   
    82    44    79 1   
    83    44    80 1   
    84    44    81 1   
    85    45    82 1   
    86    45    83 1   
    87    45    84 1   
    88    46    85 1   
    89    46    86 1   
    90    46    87 1   
@<TRIPOS>SUBSTRUCTURE
     1 KNI         1 TEMP              0 ****  ****    0 ROOT
