@<TRIPOS>MOLECULE
KNJ
   80    82     1     0     0
SMALL
No Charge or Current Charge


@<TRIPOS>ATOM
      1 C1           6.1490    -3.0870    -0.3030 c3         1 KNJ      -0.046300
      2 C2           6.7080    -1.6700    -0.2450 ca         1 KNJ      -0.039800
      3 C3           8.0700    -1.4400    -0.5180 ca         1 KNJ      -0.174500
      4 C4           8.5950    -0.1420    -0.4670 ca         1 KNJ       0.288000
      5 C7           6.4010     0.7350     0.1400 ca         1 KNJ      -0.039800
      6 N1           9.9200     0.0700    -0.7350 nv         1 KNJ      -1.064000
      7 C5           7.7660     0.9390    -0.1390 ca         1 KNJ      -0.174500
      8 C6           5.5260     1.9300     0.5110 c3         1 KNJ      -0.046300
      9 C8           5.8720    -0.5760     0.0750 ca         1 KNJ       0.041100
     10 O1           4.5400    -0.7960     0.3370 os         1 KNJ      -0.326100
     11 C9           3.5700    -0.5640    -0.7070 c3         1 KNJ       0.079600
     12 C10          2.1150    -0.6410    -0.1900 c          1 KNJ       0.604100
     13 O6           1.8140    -0.9560     0.9560 o          1 KNJ      -0.574100
     14 C20         -2.6450    -0.9760    -1.4150 c          1 KNJ       0.580100
     15 N3           1.1600    -0.3070    -1.1300 ns         1 KNJ      -0.506900
     16 O4          -3.4860    -0.4720    -2.1530 o          1 KNJ      -0.610100
     17 C19         -1.1370    -0.9710    -1.8290 c3         1 KNJ       0.091300
     18 C13          0.2100     2.1650     0.1840 ca         1 KNJ      -0.082300
     19 C12         -0.6230     1.3880    -0.8300 c3         1 KNJ      -0.054100
     20 C16          1.7750     3.5540     2.0740 ca         1 KNJ      -0.106000
     21 C11         -0.2710    -0.1230    -0.8500 c3         1 KNJ       0.088700
     22 O2          -0.9580    -0.5060    -3.1950 oh         1 KNJ      -0.650000
     23 C14          1.3500     2.8840    -0.2280 ca         1 KNJ      -0.101500
     24 C18         -0.1420     2.1470     1.5480 ca         1 KNJ      -0.101500
     25 C15          2.1300     3.5760     0.7150 ca         1 KNJ      -0.109500
     26 C17          0.6380     2.8400     2.4900 ca         1 KNJ      -0.109500
     27 C26         -4.8470     0.1720     0.5070 c          1 KNJ       0.612100
     28 N4          -3.0140    -1.5030    -0.1570 n          1 KNJ      -0.388800
     29 O5          -4.1180     1.1370     0.7010 o          1 KNJ      -0.597100
     30 C21         -4.4140    -1.3230     0.3610 c5         1 KNJ       0.026700
     31 C22         -4.4340    -2.0180     1.7720 c5         1 KNJ       0.103000
     32 C25         -2.2520    -2.6160     0.4630 c5         1 KNJ       0.237000
     33 C23         -3.7420    -1.2270     2.9180 c3         1 KNJ      -0.084600
     34 C24         -5.8540    -2.4290     2.2330 c3         1 KNJ      -0.084600
     35 S2          -3.4830    -3.5640     1.4610 ss         1 KNJ      -0.422000
     36 C27         -6.9580     1.5390     0.3890 c3         1 KNJ       0.134200
     37 C28         -7.4670     1.8610    -1.0030 c2         1 KNJ      -0.136400
     38 C30         -6.4730     2.6350    -1.8490 c3         1 KNJ      -0.061900
     39 C29         -8.6780     1.4890    -1.4480 c2         1 KNJ      -0.317000
     40 H1           5.6170    -3.3400     0.6220 hc         1 KNJ       0.046033
     41 H1A          5.4450    -3.1970    -1.1360 hc         1 KNJ       0.046033
     42 H1B          6.9420    -3.8320    -0.4390 hc         1 KNJ       0.046033
     43 H3           8.7200    -2.2730    -0.7710 ha         1 KNJ       0.112500
     44 HN1         10.3320     0.9860    -0.5670 hn         1 KNJ       0.443000
     45 HN1A        10.5520    -0.7210    -0.8400 hn         1 KNJ       0.443000
     46 H5           8.1810     1.9430    -0.0980 ha         1 KNJ       0.112500
     47 H6           4.9910     2.3110    -0.3670 hc         1 KNJ       0.046033
     48 H6A          4.7820     1.6660     1.2710 hc         1 KNJ       0.046033
     49 H6B          6.1240     2.7540     0.9170 hc         1 KNJ       0.046033
     50 H9           3.7070     0.4320    -1.1460 h1         1 KNJ       0.041200
     51 H9A          3.6850    -1.3010    -1.5110 h1         1 KNJ       0.041200
     52 HN3          1.4890    -0.0880    -2.0630 hn         1 KNJ       0.318500
     53 H19         -0.7940    -2.0110    -1.7580 h1         1 KNJ       0.085700
     54 H12         -0.4810     1.8100    -1.8330 hc         1 KNJ       0.064700
     55 H12A        -1.6880     1.5130    -0.5990 hc         1 KNJ       0.064700
     56 H16          2.3790     4.0880     2.8040 ha         1 KNJ       0.110000
     57 H11         -0.4670    -0.4970     0.1630 h1         1 KNJ       0.093700
     58 HO2         -1.8510    -0.2150    -3.5000 ho         1 KNJ       0.472000
     59 H14          1.6350     2.9030    -1.2770 ha         1 KNJ       0.115000
     60 H18         -1.0180     1.5920     1.8780 ha         1 KNJ       0.115000
     61 H15          3.0090     4.1290     0.3920 ha         1 KNJ       0.109000
     62 H17          0.3630     2.8210     3.5420 ha         1 KNJ       0.109000
     63 H21         -5.1150    -1.8200    -0.3230 h1         1 KNJ       0.080700
     64 H25         -1.8310    -3.2520    -0.3250 h2         1 KNJ       0.088200
     65 H25A        -1.4850    -2.1770     1.1140 h2         1 KNJ       0.088200
     66 H23         -2.7430    -0.8790     2.6350 hc         1 KNJ       0.052867
     67 H23A        -4.3260    -0.3450     3.2060 hc         1 KNJ       0.052867
     68 H23B        -3.6310    -1.8490     3.8150 hc         1 KNJ       0.052867
     69 H24         -5.8130    -3.0460     3.1390 hc         1 KNJ       0.052867
     70 H24A        -6.4740    -1.5540     2.4620 hc         1 KNJ       0.052867
     71 H24B        -6.3700    -3.0140     1.4620 hc         1 KNJ       0.052867
     72 HN5         -6.7310    -0.5710     0.1720 hn         1 KNJ       0.315500
     73 H27         -7.8020     1.4330     1.0840 h1         1 KNJ       0.061700
     74 H27A        -6.3200     2.3500     0.7660 h1         1 KNJ       0.061700
     75 H30         -5.5400     2.0720    -1.9780 hc         1 KNJ       0.049700
     76 H30A        -6.8690     2.8450    -2.8500 hc         1 KNJ       0.049700
     77 H30B        -6.2220     3.5970    -1.3860 hc         1 KNJ       0.049700
     78 H29         -9.3720     0.9290    -0.8200 ha         1 KNJ       0.163000
     79 H29A        -9.0190     1.7300    -2.4550 ha         1 KNJ       0.163000
     80 N5          -6.2150     0.2790     0.3620 ns         1 KNJ      -0.494900
@<TRIPOS>BOND
     1     1     2 1   
     2     1    40 1   
     3     1    41 1   
     4     1    42 1   
     5     2     3 ar  
     6     2     9 ar  
     7     3     4 ar  
     8     3    43 1   
     9     4     6 1   
    10     4     7 ar  
    11     5     7 ar  
    12     5     8 1   
    13     5     9 ar  
    14     6    44 1   
    15     6    45 1   
    16     7    46 1   
    17     8    47 1   
    18     8    48 1   
    19     8    49 1   
    20     9    10 1   
    21    10    11 1   
    22    11    12 1   
    23    11    50 1   
    24    11    51 1   
    25    12    13 2   
    26    12    15 1   
    27    14    16 2   
    28    14    17 1   
    29    14    28 1   
    30    15    21 1   
    31    15    52 1   
    32    17    21 1   
    33    17    22 1   
    34    17    53 1   
    35    18    19 1   
    36    18    23 ar  
    37    18    24 ar  
    38    19    21 1   
    39    19    54 1   
    40    19    55 1   
    41    20    25 ar  
    42    20    26 ar  
    43    20    56 1   
    44    21    57 1   
    45    22    58 1   
    46    23    25 ar  
    47    23    59 1   
    48    24    26 ar  
    49    24    60 1   
    50    25    61 1   
    51    26    62 1   
    52    27    29 2   
    53    27    30 1   
    54    27    80 1   
    55    28    30 1   
    56    28    32 1   
    57    30    31 1   
    58    30    63 1   
    59    31    33 1   
    60    31    34 1   
    61    31    35 1   
    62    32    35 1   
    63    32    64 1   
    64    32    65 1   
    65    33    66 1   
    66    33    67 1   
    67    33    68 1   
    68    34    69 1   
    69    34    70 1   
    70    34    71 1   
    71    36    37 1   
    72    36    73 1   
    73    36    74 1   
    74    36    80 1   
    75    37    38 1   
    76    37    39 2   
    77    38    75 1   
    78    38    76 1   
    79    38    77 1   
    80    39    78 1   
    81    39    79 1   
    82    72    80 1   
@<TRIPOS>SUBSTRUCTURE
     1 KNJ         1 TEMP              0 ****  ****    0 ROOT
