@<TRIPOS>MOLECULE
KNJ
   80    82     1     0     0
SMALL
bcc


@<TRIPOS>ATOM
      1 C1           5.8330    -2.8070     0.4130 c3         1 KNJ      -0.046300
      2 C2           6.3990    -1.4590     0.0720 ca         1 KNJ      -0.039800
      3 C3           7.7480    -1.3150    -0.2260 ca         1 KNJ      -0.192500
      4 C4           8.3030    -0.0660    -0.5150 ca         1 KNJ       0.149600
      5 C7           6.1140     0.9400    -0.1810 ca         1 KNJ      -0.039800
      6 N1           9.6340     0.0550    -0.8740 nv         1 KNJ      -0.815200
      7 C5           7.4670     1.0530    -0.4780 ca         1 KNJ      -0.192500
      8 C6           5.2440     2.1620    -0.1240 c3         1 KNJ      -0.046300
      9 C8           5.5880    -0.3250     0.0830 ca         1 KNJ       0.041100
     10 O1           4.2590    -0.4520     0.4090 os         1 KNJ      -0.302900
     11 C9           3.4050    -0.5850    -0.6980 c3         1 KNJ       0.056400
     12 C10          1.9740    -0.6220    -0.1930 c          1 KNJ       0.671100
     13 O6           1.6980    -0.9300     0.9510 o          1 KNJ      -0.574100
     14 C20         -2.6120    -1.1300    -1.3590 c          1 KNJ       0.647100
     15 N3           1.0630    -0.3270    -1.1400 ns         1 KNJ      -0.573900
     16 O4          -3.4460    -0.5410    -2.0330 o          1 KNJ      -0.610100
     17 C19         -1.1510    -1.1300    -1.7980 c3         1 KNJ       0.068100
     18 C13         -0.0240     2.1310    -0.0150 ca         1 KNJ      -0.082300
     19 C12         -0.7780     1.2750    -0.9910 c3         1 KNJ      -0.054100
     20 C16          1.4210     3.6370     1.8490 ca         1 KNJ      -0.124000
     21 C11         -0.3480    -0.1950    -0.8710 c3         1 KNJ       0.088700
     22 O2          -1.0510    -0.7560    -3.1380 oh         1 KNJ      -0.587800
     23 C14          1.1210     2.8240    -0.3960 ca         1 KNJ      -0.119500
     24 C18         -0.4370     2.2050     1.3140 ca         1 KNJ      -0.119500
     25 C15          1.8400     3.5720     0.5270 ca         1 KNJ      -0.127500
     26 C17          0.2770     2.9520     2.2400 ca         1 KNJ      -0.127500
     27 C26         -4.6160    -0.1140     0.5460 c          1 KNJ       0.679100
     28 N4          -2.9260    -1.7230    -0.1930 n          1 KNJ      -0.455800
     29 O5          -3.7710     0.6880     0.9040 o          1 KNJ      -0.597100
     30 C21         -4.2800    -1.5880     0.3130 c5         1 KNJ       0.026700
     31 C22         -4.3850    -2.4080     1.6250 c5         1 KNJ       0.055100
     32 C25         -2.0850    -2.6710     0.5160 c5         1 KNJ       0.189100
     33 C23         -3.9160    -1.6610     2.8700 c3         1 KNJ      -0.084600
     34 C24         -5.7930    -2.9460     1.8300 c3         1 KNJ      -0.084600
     35 S2          -3.2510    -3.8100     1.2900 ss         1 KNJ      -0.326200
     36 C27         -6.4820     1.4930     0.6050 c3         1 KNJ       0.134200
     37 C28         -6.6540     2.2760    -0.6720 c2         1 KNJ      -0.136400
     38 C30         -5.4070     2.5920    -1.4400 c3         1 KNJ      -0.061900
     39 C29         -7.8630     2.6730    -1.0620 c2         1 KNJ      -0.217000
     40 H1           5.3980    -2.8150     1.4130 hc         1 KNJ       0.046033
     41 H1A          5.0440    -3.1110    -0.2770 hc         1 KNJ       0.046033
     42 H1B          6.6070    -3.5710     0.3800 hc         1 KNJ       0.046033
     43 H3           8.3840    -2.1940    -0.2330 ha         1 KNJ       0.130500
     44 HN1         10.0380     0.9640    -0.7130 hn         1 KNJ       0.387800
     45 HN1A        10.2370    -0.6750    -0.5260 hn         1 KNJ       0.387800
     46 H5           7.8800     2.0340    -0.6840 ha         1 KNJ       0.130500
     47 H6           4.5550     2.2120    -0.9700 hc         1 KNJ       0.046033
     48 H6A          4.6340     2.1830     0.7780 hc         1 KNJ       0.046033
     49 H6B          5.8470     3.0690    -0.1460 hc         1 KNJ       0.046033
     50 H9           3.5310     0.2400    -1.4090 h1         1 KNJ       0.041200
     51 H9A          3.6000    -1.5120    -1.2540 h1         1 KNJ       0.041200
     52 HN3          1.3900    -0.0170    -2.0430 hn         1 KNJ       0.318500
     53 H19         -0.7270    -2.1340    -1.7050 h1         1 KNJ       0.085700
     54 H12         -0.6040     1.6250    -2.0110 hc         1 KNJ       0.064700
     55 H12A        -1.8490     1.3570    -0.7960 hc         1 KNJ       0.064700
     56 H16          1.9780     4.2230     2.5680 ha         1 KNJ       0.128000
     57 H11         -0.4970    -0.5170     0.1600 h1         1 KNJ       0.093700
     58 HO2         -1.8130    -0.1970    -3.3430 ho         1 KNJ       0.433000
     59 H14          1.4510     2.7870    -1.4280 ha         1 KNJ       0.133000
     60 H18         -1.3320     1.6740     1.6190 ha         1 KNJ       0.133000
     61 H15          2.7280     4.1050     0.2120 ha         1 KNJ       0.127000
     62 H17         -0.0600     3.0020     3.2670 ha         1 KNJ       0.127000
     63 H21         -4.9800    -2.0180    -0.4130 h1         1 KNJ       0.080700
     64 H25         -1.4460    -3.2350    -0.1600 h2         1 KNJ       0.088200
     65 H25A        -1.4580    -2.1840     1.2650 h2         1 KNJ       0.088200
     66 H23         -2.9180    -1.2370     2.7620 hc         1 KNJ       0.052867
     67 H23A        -4.5990    -0.8480     3.1200 hc         1 KNJ       0.052867
     68 H23B        -3.9010    -2.3460     3.7170 hc         1 KNJ       0.052867
     69 H24         -5.8300    -3.6030     2.7000 hc         1 KNJ       0.052867
     70 H24A        -6.4880    -2.1250     2.0130 hc         1 KNJ       0.052867
     71 H24B        -6.1410    -3.5060     0.9620 hc         1 KNJ       0.052867
     72 HN5         -6.5260    -0.5240    -0.0020 hn         1 KNJ       0.315500
     73 H27         -7.4440     1.3740     1.1050 h1         1 KNJ       0.061700
     74 H27A        -5.8230     2.0330     1.2860 h1         1 KNJ       0.061700
     75 H30         -4.9170     1.6840    -1.7940 hc         1 KNJ       0.049700
     76 H30A        -5.6180     3.2220    -2.3030 hc         1 KNJ       0.049700
     77 H30B        -4.6810     3.1050    -0.8060 hc         1 KNJ       0.049700
     78 H29         -8.7520     2.4320    -0.4920 ha         1 KNJ       0.113000
     79 H29A        -8.0080     3.2580    -1.9620 ha         1 KNJ       0.113000
     80 N5          -5.9160     0.1770     0.3890 ns         1 KNJ      -0.561900
@<TRIPOS>BOND
     1     1     2 1   
     2     1    40 1   
     3     1    41 1   
     4     1    42 1   
     5     2     3 ar  
     6     2     9 ar  
     7     3     4 ar  
     8     3    43 1   
     9     4     6 1   
    10     4     7 ar  
    11     5     7 ar  
    12     5     8 1   
    13     5     9 ar  
    14     6    44 1   
    15     6    45 1   
    16     7    46 1   
    17     8    47 1   
    18     8    48 1   
    19     8    49 1   
    20     9    10 1   
    21    10    11 1   
    22    11    12 1   
    23    11    50 1   
    24    11    51 1   
    25    12    13 2   
    26    12    15 1   
    27    14    16 2   
    28    14    17 1   
    29    14    28 1   
    30    15    21 1   
    31    15    52 1   
    32    17    21 1   
    33    17    22 1   
    34    17    53 1   
    35    18    19 1   
    36    18    23 ar  
    37    18    24 ar  
    38    19    21 1   
    39    19    54 1   
    40    19    55 1   
    41    20    25 ar  
    42    20    26 ar  
    43    20    56 1   
    44    21    57 1   
    45    22    58 1   
    46    23    25 ar  
    47    23    59 1   
    48    24    26 ar  
    49    24    60 1   
    50    25    61 1   
    51    26    62 1   
    52    27    29 2   
    53    27    30 1   
    54    27    80 1   
    55    28    30 1   
    56    28    32 1   
    57    30    31 1   
    58    30    63 1   
    59    31    33 1   
    60    31    34 1   
    61    31    35 1   
    62    32    35 1   
    63    32    64 1   
    64    32    65 1   
    65    33    66 1   
    66    33    67 1   
    67    33    68 1   
    68    34    69 1   
    69    34    70 1   
    70    34    71 1   
    71    36    37 1   
    72    36    73 1   
    73    36    74 1   
    74    36    80 1   
    75    37    38 1   
    76    37    39 2   
    77    38    75 1   
    78    38    76 1   
    79    38    77 1   
    80    39    78 1   
    81    39    79 1   
    82    72    80 1   
@<TRIPOS>SUBSTRUCTURE
     1 KNJ         1 TEMP              0 ****  ****    0 ROOT
