@<TRIPOS>MOLECULE
KNL
   18    18     1     0     0
SMALL
bcc


@<TRIPOS>ATOM
      1 CL1         -0.4870    -2.6880     0.1930 cl         1 KNL      -0.091400
      2 O1           3.8670    -0.0350    -1.0960 o          1 KNL      -0.817800
      3 O2           0.6910    -0.0150     0.4860 os         1 KNL      -0.288900
      4 CL2         -0.4520     2.6760     0.2250 cl         1 KNL      -0.091400
      5 O3           3.2660    -0.0380     1.0570 o          1 KNL      -0.817800
      6 C1           3.0420    -0.0310    -0.1610 c          1 KNL       0.940600
      7 C2           1.5810    -0.0150    -0.6320 c3         1 KNL      -0.008600
      8 C3          -3.3540     0.0160    -0.3940 ca         1 KNL      -0.153000
      9 C4          -2.6870    -1.1920    -0.2630 ca         1 KNL      -0.121000
     10 C5          -1.3290    -1.1910     0.0110 ca         1 KNL      -0.007600
     11 C6          -0.6140    -0.0040     0.1710 ca         1 KNL       0.165100
     12 C7          -1.3140     1.1930     0.0250 ca         1 KNL      -0.007600
     13 C8          -2.6720     1.2140    -0.2480 ca         1 KNL      -0.121000
     14 H2           1.3950    -0.8900    -1.2650 h1         1 KNL       0.016700
     15 H3           1.4110     0.8740    -1.2510 h1         1 KNL       0.016700
     16 H4          -4.4140     0.0240    -0.6040 ha         1 KNL       0.122000
     17 H5          -3.2170    -2.1280    -0.3780 ha         1 KNL       0.133000
     18 H6          -3.1900     2.1580    -0.3490 ha         1 KNL       0.133000
@<TRIPOS>BOND
     1     1    10 1   
     2     2     6 1   
     3     3     7 1   
     4     3    11 1   
     5     4    12 1   
     6     5     6 1   
     7     6     7 1   
     8     7    14 1   
     9     7    15 1   
    10     8     9 ar  
    11     8    13 ar  
    12     8    16 1   
    13     9    10 ar  
    14     9    17 1   
    15    10    11 ar  
    16    11    12 ar  
    17    12    13 ar  
    18    13    18 1   
@<TRIPOS>SUBSTRUCTURE
     1 KNL         1 TEMP              0 ****  ****    0 ROOT
