@<TRIPOS>MOLECULE
KNL
   18    18     1     0     0
SMALL
No Charge or Current Charge


@<TRIPOS>ATOM
      1 Cl1         -0.5370    -2.7730     0.1980 cl         1 KNL      -0.183000
      2 O1           3.9880    -0.0300    -1.0480 o          1 KNL      -0.712500
      3 O2           0.6940    -0.0160     0.4560 os         1 KNL      -0.312100
      4 Cl2         -0.4990     2.7600     0.2330 cl         1 KNL      -0.183000
      5 O3           3.3870    -0.0380     1.0190 o          1 KNL      -0.712500
      6 C1           3.1250    -0.0290    -0.1790 c          1 KNL       0.730000
      7 C2           1.6360    -0.0160    -0.6410 c3         1 KNL       0.014600
      8 C3          -3.4160     0.0170    -0.3930 ca         1 KNL      -0.135000
      9 C4          -2.7360    -1.2060    -0.2570 ca         1 KNL      -0.103000
     10 C5          -1.3590    -1.2210     0.0280 ca         1 KNL       0.084000
     11 C6          -0.6550    -0.0050     0.1750 ca         1 KNL       0.165100
     12 C7          -1.3430     1.2210     0.0440 ca         1 KNL       0.084000
     13 C8          -2.7200     1.2290    -0.2410 ca         1 KNL      -0.103000
     14 H2           1.4750    -0.8980    -1.2750 h1         1 KNL       0.016700
     15 H3           1.4870     0.8750    -1.2640 h1         1 KNL       0.016700
     16 H4          -4.4820     0.0260    -0.6130 ha         1 KNL       0.104000
     17 H5          -3.2760    -2.1430    -0.3710 ha         1 KNL       0.115000
     18 H6          -3.2470     2.1750    -0.3440 ha         1 KNL       0.115000
@<TRIPOS>BOND
     1     1    10 1   
     2     2     6 1   
     3     3     7 1   
     4     3    11 1   
     5     4    12 1   
     6     5     6 1   
     7     6     7 1   
     8     7    14 1   
     9     7    15 1   
    10     8     9 ar  
    11     8    13 ar  
    12     8    16 1   
    13     9    10 ar  
    14     9    17 1   
    15    10    11 ar  
    16    11    12 ar  
    17    12    13 ar  
    18    13    18 1   
@<TRIPOS>SUBSTRUCTURE
     1 KNL         1 TEMP              0 ****  ****    0 ROOT
