@<TRIPOS>MOLECULE
KNM
  158   160     1     0     0
SMALL
abcg2


@<TRIPOS>ATOM
      1 O1          -7.4110    -0.4720    -0.4600 o          1 KNM      -0.612100
      2 C1          -6.7490     0.5430    -0.6340 c          1 KNM       0.603100
      3 C2          -5.4250     0.5190    -1.3610 c3         1 KNM      -0.154400
      4 N1          -7.1480     1.7370    -0.1670 ns         1 KNM      -0.493900
      5 C3          -8.3900     1.8980     0.5480 c3         1 KNM       0.042700
      6 C4          -8.4720     3.3300     1.0830 c3         1 KNM      -0.085400
      7 C5          -9.7270     3.6700     1.8900 c3         1 KNM      -0.059700
      8 C6          -9.8850     2.7950     3.1290 c3         1 KNM      -0.088100
      9 C7          -9.6840     5.1440     2.2840 c3         1 KNM      -0.088100
     10 C8          -9.5720     1.6230    -0.3840 c          1 KNM       0.600100
     11 N2         -10.5360     0.8570     0.1460 ns         1 KNM      -0.481900
     12 C9         -11.7990     0.5750    -0.4810 c3         1 KNM       0.030700
     13 C10        -11.9470    -0.9160    -0.8160 c3         1 KNM      -0.082400
     14 C11        -10.9250    -1.4500    -1.8200 c3         1 KNM      -0.063700
     15 C12        -11.0640    -2.9660    -1.9270 c3         1 KNM      -0.089600
     16 C13        -11.0800    -0.8000    -3.1920 c3         1 KNM      -0.089600
     17 C14        -12.9300     0.9900     0.4590 c          1 KNM       0.586100
     18 O2         -12.7900     0.9810     1.6720 o          1 KNM      -0.613100
     19 N3         -14.0770     1.3040    -0.1650 ns         1 KNM      -0.504900
     20 C15        -15.3170     1.6410     0.5090 c3         1 KNM       0.116700
     21 C17        -15.9030     2.9000    -0.1330 c3         1 KNM      -0.088400
     22 C18        -17.2080     3.4120     0.4780 c3         1 KNM      -0.058700
     23 C19        -17.0740     3.6780     1.9740 c3         1 KNM      -0.090100
     24 C20        -17.6530     4.6770    -0.2520 c3         1 KNM      -0.090100
     25 O3          -9.6210     2.1220    -1.4970 o          1 KNM      -0.610100
     26 C21        -16.3010     0.4670     0.4790 c3         1 KNM      -0.068400
     27 S1         -16.9290    -2.0940     1.1550 s6         1 KNM       1.077000
     28 O4         -17.9910    -1.6790     2.0730 o          1 KNM      -0.520000
     29 O5         -17.3120    -2.4520    -0.2120 o          1 KNM      -0.520000
     30 C22        -16.0580    -3.4640     1.8810 c3         1 KNM      -0.335100
     31 H1          -5.6080     0.1390    -2.3700 hc         1 KNM       0.060200
     32 H2          -5.0110     1.5240    -1.4720 hc         1 KNM       0.060200
     33 H4          -6.6010     2.5580    -0.3690 hn         1 KNM       0.322500
     34 H5          -8.4040     1.1960     1.3870 h1         1 KNM       0.072700
     35 H6          -7.5900     3.5020     1.7090 hc         1 KNM       0.052200
     36 H7          -8.3980     4.0190     0.2350 hc         1 KNM       0.052200
     37 H8         -10.6060     3.5260     1.2530 hc         1 KNM       0.056700
     38 H9         -10.7440     3.1190     3.7190 hc         1 KNM       0.035700
     39 H10        -10.0480     1.7450     2.8890 hc         1 KNM       0.035700
     40 H11         -9.0000     2.8600     3.7660 hc         1 KNM       0.035700
     41 H12         -9.5680     5.7870     1.4100 hc         1 KNM       0.035700
     42 H13        -10.6010     5.4390     2.7940 hc         1 KNM       0.035700
     43 H14         -8.8490     5.3450     2.9600 hc         1 KNM       0.035700
     44 H15        -10.3920     0.4760     1.0680 hn         1 KNM       0.331500
     45 H16        -11.8520     1.1690    -1.3940 h1         1 KNM       0.092700
     46 H17        -11.8770    -1.4880     0.1160 hc         1 KNM       0.043700
     47 H18        -12.9540    -1.0930    -1.2080 hc         1 KNM       0.043700
     48 H19         -9.9220    -1.2260    -1.4430 hc         1 KNM       0.077700
     49 H20        -12.0590    -3.2440    -2.2830 hc         1 KNM       0.034033
     50 H21        -10.3360    -3.3770    -2.6280 hc         1 KNM       0.034033
     51 H22        -10.9060    -3.4520    -0.9630 hc         1 KNM       0.034033
     52 H23        -12.0900    -0.9460    -3.5820 hc         1 KNM       0.034033
     53 H24        -10.8760     0.2700    -3.1670 hc         1 KNM       0.034033
     54 H25        -10.3850    -1.2430    -3.9080 hc         1 KNM       0.034033
     55 H26        -14.0890     1.3000    -1.1740 hn         1 KNM       0.315500
     56 H27        -15.0570     1.8540     1.5470 h1         1 KNM       0.085700
     57 H28        -14.8730    -1.1780     0.4860 h1         1 KNM       0.099700
     58 H29        -15.3500    -0.6320     2.1050 h1         1 KNM       0.099700
     59 H30        -15.1480     3.6900    -0.0670 hc         1 KNM       0.046200
     60 H31        -16.0630     2.7110    -1.2010 hc         1 KNM       0.046200
     61 H32        -17.9880     2.6580     0.3290 hc         1 KNM       0.049700
     62 H33        -18.0090     4.0570     2.3900 hc         1 KNM       0.035533
     63 H34        -16.8160     2.7770     2.5340 hc         1 KNM       0.035533
     64 H35        -16.2970     4.4200     2.1700 hc         1 KNM       0.035533
     65 H36        -16.9110     5.4710    -0.1410 hc         1 KNM       0.035533
     66 H37        -17.7880     4.4950    -1.3190 hc         1 KNM       0.035533
     67 H38        -18.5990     5.0480     0.1440 hc         1 KNM       0.035533
     68 H39        -17.1950     0.7470     1.0400 hc         1 KNM       0.066700
     69 H40        -16.6110     0.2740    -0.5500 hc         1 KNM       0.066700
     70 H41        -15.7200    -3.1910     2.8770 h1         1 KNM       0.104367
     71 H42        -16.7570    -4.2970     1.9400 h1         1 KNM       0.104367
     72 H43        -15.2130    -3.7340     1.2520 h1         1 KNM       0.104367
     73 C23         -4.4160    -0.3820    -0.6500 c3         1 KNM      -0.070400
     74 C24         -3.1120    -0.5220    -1.4240 c3         1 KNM      -0.075400
     75 C25         -2.0940    -1.3870    -0.6930 c3         1 KNM      -0.073400
     76 C26         -0.7970    -1.5720    -1.4690 c3         1 KNM      -0.094400
     77 C27          0.1960    -2.4300    -0.7030 c3         1 KNM       0.103000
     78 N4           1.4360    -2.5740    -1.4370 ns         1 KNM      -0.508900
     79 C28          2.4080    -3.4190    -1.0660 c          1 KNM       0.597100
     80 O6           2.2980    -4.1550    -0.0920 o          1 KNM      -0.608100
     81 C29          3.6490    -3.4200    -1.9330 c3         1 KNM      -0.155400
     82 C30          4.9310    -3.3710    -1.1080 c3         1 KNM      -0.067400
     83 C61          6.1810    -3.4370    -1.9750 c3         1 KNM      -0.073400
     84 C62          7.4620    -3.3450    -1.1570 c3         1 KNM      -0.100400
     85 C31          8.7080    -3.4560    -2.0280 c3         1 KNM       0.103000
     86 N5           9.9410    -3.3560    -1.2780 ns         1 KNM      -0.505900
     87 C32         10.5280    -2.1890    -0.9690 c          1 KNM       0.598100
     88 C33         11.7650    -2.2850    -0.1020 c3         1 KNM      -0.158400
     89 O7          10.1010    -1.1090    -1.3600 o          1 KNM      -0.608100
     90 C34         12.9490    -1.5330    -0.7030 c3         1 KNM      -0.068400
     91 C35         14.1440    -1.4840     0.2400 c3         1 KNM      -0.074400
     92 C36         15.3400    -0.7710    -0.3760 c3         1 KNM      -0.097400
     93 C37         16.5060    -0.6550     0.5970 c3         1 KNM       0.098000
     94 N6          17.6290     0.0430     0.0140 ns         1 KNM      -0.510900
     95 C38         18.8780    -0.4470    -0.0930 c          1 KNM       0.606100
     96 C39         19.8720     0.4880    -0.7480 c3         1 KNM      -0.154400
     97 O8          19.1970    -1.5600     0.3080 o          1 KNM      -0.608100
     98 C40         20.7280     1.3210     0.2240 c6         1 KNM      -0.036000
     99 C42         21.6350     2.2240    -0.6260 c6         1 KNM      -0.065400
    100 C43         19.8600     2.2130     1.1230 c6         1 KNM      -0.065400
    101 C44         21.6160     0.4420     1.1150 c6         1 KNM      -0.065400
    102 C47         20.7420     3.0890     2.0170 c6         1 KNM      -0.058033
    103 C48         21.6180     2.1930     2.8960 c6         1 KNM      -0.068400
    104 C51         23.3950     2.2030     1.1410 c6         1 KNM      -0.068400
    105 C49         22.5020     1.3140     2.0090 c6         1 KNM      -0.058033
    106 C50         21.6340     3.9780     1.1470 c6         1 KNM      -0.068400
    107 C52         22.5200     3.0990     0.2620 c6         1 KNM      -0.058033
    108 H44         23.1540     3.7300    -0.3690 hc         1 KNM       0.049367
    109 H3          -4.2090     0.0220     0.3450 hc         1 KNM       0.052700
    110 H45         -4.8560    -1.3710    -0.4990 hc         1 KNM       0.052700
    111 H46         -3.3200    -0.9530    -2.4090 hc         1 KNM       0.038700
    112 H47         -2.6830     0.4680    -1.6090 hc         1 KNM       0.038700
    113 H48         -1.8740    -0.9390     0.2820 hc         1 KNM       0.044700
    114 H49         -2.5350    -2.3680    -0.4840 hc         1 KNM       0.044700
    115 H50         -1.0100    -2.0350    -2.4380 hc         1 KNM       0.042200
    116 H51         -0.3530    -0.5930    -1.6790 hc         1 KNM       0.042200
    117 H52          0.3890    -1.9830     0.2780 h1         1 KNM       0.051700
    118 H53         -0.2350    -3.4170    -0.5190 h1         1 KNM       0.051700
    119 H54          1.5990    -1.9520    -2.2120 hn         1 KNM       0.311500
    120 H55          3.6340    -4.3380    -2.5300 hc         1 KNM       0.054700
    121 H56          3.6310    -2.5910    -2.6440 hc         1 KNM       0.054700
    122 H57          4.9470    -2.4510    -0.5150 hc         1 KNM       0.054700
    123 H58          4.9390    -4.1990    -0.3960 hc         1 KNM       0.054700
    124 H59          6.1760    -4.3700    -2.5490 hc         1 KNM       0.037700
    125 H60          6.1600    -2.6260    -2.7120 hc         1 KNM       0.037700
    126 H61          7.4850    -2.3940    -0.6160 hc         1 KNM       0.049200
    127 H62          7.4770    -4.1360    -0.4020 hc         1 KNM       0.049200
    128 H63          8.7140    -4.4160    -2.5470 h1         1 KNM       0.053200
    129 H64          8.6980    -2.6820    -2.7970 h1         1 KNM       0.053200
    130 H65         10.3250    -4.2040    -0.8970 hn         1 KNM       0.311500
    131 H66         11.5140    -1.8480     0.8700 hc         1 KNM       0.056700
    132 H67         12.0400    -3.3250     0.0860 hc         1 KNM       0.056700
    133 H68         13.2430    -2.0100    -1.6430 hc         1 KNM       0.053700
    134 H69         12.6430    -0.5150    -0.9530 hc         1 KNM       0.053700
    135 H70         13.8510    -0.9770     1.1660 hc         1 KNM       0.040200
    136 H71         14.4340    -2.5000     0.5260 hc         1 KNM       0.040200
    137 H72         15.6680    -1.3060    -1.2720 hc         1 KNM       0.044700
    138 H73         15.0380     0.2300    -0.7020 hc         1 KNM       0.044700
    139 H74         16.1820    -0.1320     1.5020 h1         1 KNM       0.055700
    140 H75         16.8440    -1.6430     0.9050 h1         1 KNM       0.055700
    141 H76         17.4550     0.9710    -0.3350 hn         1 KNM       0.308500
    142 H77         20.5410    -0.1180    -1.3650 hc         1 KNM       0.060200
    143 H78         19.3520     1.1770    -1.4200 hc         1 KNM       0.060200
    144 H79         22.2550     1.6040    -1.2840 hc         1 KNM       0.042867
    145 H80         21.0180     2.8540    -1.2780 hc         1 KNM       0.042867
    146 H81         19.2090     2.8420     0.5060 hc         1 KNM       0.042867
    147 H82         19.2040     1.5980     1.7480 hc         1 KNM       0.042867
    148 H83         20.9980    -0.2140     1.7360 hc         1 KNM       0.042867
    149 H84         22.2350    -0.2100     0.4900 hc         1 KNM       0.042867
    150 H85         20.1040     3.7140     2.6490 hc         1 KNM       0.049367
    151 H86         22.2380     2.8050     3.5600 hc         1 KNM       0.039700
    152 H87         20.9900     1.5690     3.5400 hc         1 KNM       0.039700
    153 H88         24.0490     2.8130     1.7720 hc         1 KNM       0.039700
    154 H89         24.0490     1.5850     0.5160 hc         1 KNM       0.039700
    155 H90         23.1250     0.6680     2.6360 hc         1 KNM       0.049367
    156 H91         21.0180     4.6380     0.5270 hc         1 KNM       0.039700
    157 H92         22.2520     4.6250     1.7780 hc         1 KNM       0.039700
    158 C16        -15.7000    -0.7930     1.0840 c3         1 KNM      -0.294400
@<TRIPOS>BOND
     1     1     2 2   
     2     2     3 1   
     3     2     4 1   
     4     3    31 1   
     5     3    32 1   
     6     3    73 1   
     7     4     5 1   
     8     4    33 1   
     9     5     6 1   
    10     5    10 1   
    11     5    34 1   
    12     6     7 1   
    13     6    35 1   
    14     6    36 1   
    15     7     8 1   
    16     7     9 1   
    17     7    37 1   
    18     8    38 1   
    19     8    39 1   
    20     8    40 1   
    21     9    41 1   
    22     9    42 1   
    23     9    43 1   
    24    10    11 1   
    25    10    25 2   
    26    11    12 1   
    27    11    44 1   
    28    12    13 1   
    29    12    17 1   
    30    12    45 1   
    31    13    14 1   
    32    13    46 1   
    33    13    47 1   
    34    14    15 1   
    35    14    16 1   
    36    14    48 1   
    37    15    49 1   
    38    15    50 1   
    39    15    51 1   
    40    16    52 1   
    41    16    53 1   
    42    16    54 1   
    43    17    18 2   
    44    17    19 1   
    45    19    20 1   
    46    19    55 1   
    47    20    21 1   
    48    20    26 1   
    49    20    56 1   
    50    21    22 1   
    51    21    59 1   
    52    21    60 1   
    53    22    23 1   
    54    22    24 1   
    55    22    61 1   
    56    23    62 1   
    57    23    63 1   
    58    23    64 1   
    59    24    65 1   
    60    24    66 1   
    61    24    67 1   
    62    26    68 1   
    63    26    69 1   
    64    26   158 1   
    65    27    28 2   
    66    27    29 2   
    67    27    30 1   
    68    27   158 1   
    69    30    70 1   
    70    30    71 1   
    71    30    72 1   
    72    57   158 1   
    73    58   158 1   
    74    73    74 1   
    75    73   109 1   
    76    73   110 1   
    77    74    75 1   
    78    74   111 1   
    79    74   112 1   
    80    75    76 1   
    81    75   113 1   
    82    75   114 1   
    83    76    77 1   
    84    76   115 1   
    85    76   116 1   
    86    77    78 1   
    87    77   117 1   
    88    77   118 1   
    89    78    79 1   
    90    78   119 1   
    91    79    80 2   
    92    79    81 1   
    93    81    82 1   
    94    81   120 1   
    95    81   121 1   
    96    82    83 1   
    97    82   122 1   
    98    82   123 1   
    99    83    84 1   
   100    83   124 1   
   101    83   125 1   
   102    84    85 1   
   103    84   126 1   
   104    84   127 1   
   105    85    86 1   
   106    85   128 1   
   107    85   129 1   
   108    86    87 1   
   109    86   130 1   
   110    87    88 1   
   111    87    89 2   
   112    88    90 1   
   113    88   131 1   
   114    88   132 1   
   115    90    91 1   
   116    90   133 1   
   117    90   134 1   
   118    91    92 1   
   119    91   135 1   
   120    91   136 1   
   121    92    93 1   
   122    92   137 1   
   123    92   138 1   
   124    93    94 1   
   125    93   139 1   
   126    93   140 1   
   127    94    95 1   
   128    94   141 1   
   129    95    96 1   
   130    95    97 2   
   131    96    98 1   
   132    96   142 1   
   133    96   143 1   
   134    98    99 1   
   135    98   100 1   
   136    98   101 1   
   137    99   107 1   
   138    99   144 1   
   139    99   145 1   
   140   100   102 1   
   141   100   146 1   
   142   100   147 1   
   143   101   105 1   
   144   101   148 1   
   145   101   149 1   
   146   102   103 1   
   147   102   106 1   
   148   102   150 1   
   149   103   105 1   
   150   103   151 1   
   151   103   152 1   
   152   104   105 1   
   153   104   107 1   
   154   104   153 1   
   155   104   154 1   
   156   105   155 1   
   157   106   107 1   
   158   106   156 1   
   159   106   157 1   
   160   107   108 1   
@<TRIPOS>SUBSTRUCTURE
     1 KNM         1 TEMP              0 ****  ****    0 ROOT
