@<TRIPOS>MOLECULE
KNM
  158   160     1     0     0
SMALL
No Charge or Current Charge


@<TRIPOS>ATOM
      1 O1          -7.0900    -2.4870     1.9090 o          1 KNM      -0.612100
      2 C1          -6.8530    -1.8730     0.8780 c          1 KNM       0.603100
      3 C2          -5.5880    -2.1150     0.0470 c3         1 KNM      -0.154400
      4 N1          -7.7220    -0.9430     0.3570 ns         1 KNM      -0.493900
      5 C3          -8.9980    -0.5270     0.9790 c3         1 KNM       0.042700
      6 C4          -8.7110     0.4960     2.1170 c3         1 KNM      -0.085400
      7 C5          -9.9300     0.9580     2.9650 c3         1 KNM      -0.059700
      8 C6         -10.6230    -0.2130     3.7030 c3         1 KNM      -0.088100
      9 C7          -9.5130     2.0590     3.9670 c3         1 KNM      -0.088100
     10 C8          -9.9440     0.0460    -0.1190 c          1 KNM       0.600100
     11 N2         -11.2930    -0.0780     0.1400 ns         1 KNM      -0.481900
     12 C9         -12.3870     0.3810    -0.7460 c3         1 KNM       0.030700
     13 C10        -12.9800    -0.8070    -1.5570 c3         1 KNM      -0.082400
     14 C11        -12.0310    -1.4640    -2.5990 c3         1 KNM      -0.063700
     15 C12        -12.6440    -2.7710    -3.1540 c3         1 KNM      -0.089600
     16 C13        -11.6640    -0.5040    -3.7560 c3         1 KNM      -0.089600
     17 C14        -13.4910     1.0770     0.1000 c          1 KNM       0.586100
     18 O2         -13.5530     0.9880     1.3210 o          1 KNM      -0.613100
     19 N3         -14.4060     1.8090    -0.6300 ns         1 KNM      -0.504900
     20 C15        -15.5690     2.5050    -0.0720 c3         1 KNM       0.116700
     21 C17        -15.5220     3.9970    -0.4920 c3         1 KNM      -0.088400
     22 C18        -16.6290     4.9210     0.0930 c3         1 KNM      -0.058700
     23 C19        -16.6520     4.9280     1.6400 c3         1 KNM      -0.090100
     24 C20        -16.4890     6.3590    -0.4580 c3         1 KNM      -0.090100
     25 O3          -9.5270     0.5530    -1.1530 o          1 KNM      -0.610100
     26 C21        -16.8760     1.7770    -0.4810 c3         1 KNM      -0.068400
     27 S1         -18.4410    -0.5620    -0.5310 s6         1 KNM       1.077000
     28 O4         -19.5030     0.0040     0.3100 o          1 KNM      -0.520000
     29 O5         -18.5900    -0.5440    -1.9910 o          1 KNM      -0.520000
     30 C22        -18.1890    -2.2610    -0.0270 c3         1 KNM      -0.335100
     31 H1          -5.4350    -3.1960    -0.0500 hc         1 KNM       0.060200
     32 H2          -5.7010    -1.6660    -0.9470 hc         1 KNM       0.060200
     33 H4          -7.4540    -0.5040    -0.5170 hn         1 KNM       0.322500
     34 H5          -9.4790    -1.4200     1.3970 h1         1 KNM       0.072700
     35 H6          -7.9650     0.0660     2.7970 hc         1 KNM       0.052200
     36 H7          -8.2380     1.3800     1.6690 hc         1 KNM       0.052200
     37 H8         -10.6670     1.4160     2.2940 hc         1 KNM       0.056700
     38 H9         -11.4610     0.1560     4.3090 hc         1 KNM       0.035700
     39 H10        -11.0260    -0.9500     3.0010 hc         1 KNM       0.035700
     40 H11         -9.9190    -0.7240     4.3710 hc         1 KNM       0.035700
     41 H12         -9.0710     2.9150     3.4430 hc         1 KNM       0.035700
     42 H13        -10.3820     2.4210     4.5300 hc         1 KNM       0.035700
     43 H14         -8.7750     1.6770     4.6840 hc         1 KNM       0.035700
     44 H15        -11.5500    -0.4750     1.0360 hn         1 KNM       0.331500
     45 H16        -12.0040     1.1440    -1.4350 h1         1 KNM       0.092700
     46 H17        -13.3150    -1.5720    -0.8450 hc         1 KNM       0.043700
     47 H18        -13.8820    -0.4710    -2.0840 hc         1 KNM       0.043700
     48 H19        -11.1010    -1.7430    -2.0890 hc         1 KNM       0.077700
     49 H20        -13.5850    -2.5690    -3.6800 hc         1 KNM       0.034033
     50 H21        -11.9550    -3.2550    -3.8560 hc         1 KNM       0.034033
     51 H22        -12.8490    -3.4790    -2.3420 hc         1 KNM       0.034033
     52 H23        -12.5630    -0.1810    -4.2950 hc         1 KNM       0.034033
     53 H24        -11.1460     0.3880    -3.3890 hc         1 KNM       0.034033
     54 H25        -10.9980    -1.0010    -4.4720 hc         1 KNM       0.034033
     55 H26        -14.2740     1.8310    -1.6340 hn         1 KNM       0.315500
     56 H27        -15.4980     2.4640     1.0240 h1         1 KNM       0.085700
     57 H28        -16.1050    -0.2760    -0.6520 h1         1 KNM       0.099700
     58 H29        -16.7490     0.1300     0.9650 h1         1 KNM       0.099700
     59 H30        -14.5450     4.4050    -0.2030 hc         1 KNM       0.046200
     60 H31        -15.5620     4.0500    -1.5880 hc         1 KNM       0.046200
     61 H32        -17.6030     4.5510    -0.2510 hc         1 KNM       0.049700
     62 H33        -17.4090     5.6290     2.0120 hc         1 KNM       0.035533
     63 H34        -16.8990     3.9370     2.0380 hc         1 KNM       0.035533
     64 H35        -15.6790     5.2310     2.0440 hc         1 KNM       0.035533
     65 H36        -15.5370     6.8060    -0.1470 hc         1 KNM       0.035533
     66 H37        -16.5280     6.3600    -1.5540 hc         1 KNM       0.035533
     67 H38        -17.3040     6.9960    -0.0920 hc         1 KNM       0.035533
     68 H39        -17.7260     2.2650     0.0110 hc         1 KNM       0.066700
     69 H40        -17.0260     1.8910    -1.5620 hc         1 KNM       0.066700
     70 H41        -17.9860    -2.2640     1.0490 h1         1 KNM       0.104367
     71 H42        -19.1060    -2.8130    -0.2580 h1         1 KNM       0.104367
     72 H43        -17.3380    -2.6540    -0.5920 h1         1 KNM       0.104367
     73 C23         -4.3390    -1.5010     0.7230 c3         1 KNM      -0.070400
     74 C24         -3.0450    -1.7220    -0.0900 c3         1 KNM      -0.075400
     75 C25         -1.7930    -1.1270     0.5920 c3         1 KNM      -0.073400
     76 C26         -0.5000    -1.3550    -0.2200 c3         1 KNM      -0.094400
     77 C27          0.7530    -0.7760     0.4700 c3         1 KNM       0.103000
     78 N4           1.9680    -0.9910    -0.3210 ns         1 KNM      -0.508900
     79 C28          2.6580    -2.1800    -0.3960 c          1 KNM       0.597100
     80 O6           2.3130    -3.1790     0.2190 o          1 KNM      -0.608100
     81 C29          3.8700    -2.1690    -1.3350 c3         1 KNM      -0.155400
     82 C30          5.2010    -2.1890    -0.5480 c3         1 KNM      -0.067400
     83 C61          6.4430    -2.1930    -1.4660 c3         1 KNM      -0.073400
     84 C62          7.7730    -2.2320    -0.6820 c3         1 KNM      -0.100400
     85 C31          9.0100    -2.2470    -1.6040 c3         1 KNM       0.103000
     86 N5          10.2610    -2.3260    -0.8460 ns         1 KNM      -0.505900
     87 C32         10.8720    -1.2620    -0.2210 c          1 KNM       0.598100
     88 C33         12.1510    -1.6110     0.5490 c3         1 KNM      -0.158400
     89 O7          10.4150    -0.1280    -0.2570 o          1 KNM      -0.608100
     90 C34         13.4150    -1.1140    -0.1910 c3         1 KNM      -0.068400
     91 C35         14.7240    -1.4720     0.5450 c3         1 KNM      -0.074400
     92 C36         15.9870    -0.9810    -0.1940 c3         1 KNM      -0.097400
     93 C37         17.2900    -1.3500     0.5400 c3         1 KNM       0.098000
     94 N6          18.4680    -0.8740    -0.1820 ns         1 KNM      -0.510900
     95 C38         19.7600    -0.9930     0.2770 c          1 KNM       0.606100
     96 C39         20.8370    -0.4180    -0.6570 c3         1 KNM      -0.154400
     97 O8          20.0220    -1.5590     1.3290 o          1 KNM      -0.608100
     98 C40         21.4190     0.9730    -0.2280 c6         1 KNM      -0.036000
     99 C42         22.4290     1.4640    -1.3190 c6         1 KNM      -0.065400
    100 C43         20.2830     2.0430    -0.0940 c6         1 KNM      -0.065400
    101 C44         22.1810     0.8860     1.1380 c6         1 KNM      -0.065400
    102 C47         20.8790     3.4290     0.2900 c6         1 KNM      -0.058033
    103 C48         21.6280     3.3110     1.6490 c6         1 KNM      -0.068400
    104 C51         23.7730     2.7310     0.4210 c6         1 KNM      -0.068400
    105 C49         22.7780     2.2710     1.5230 c6         1 KNM      -0.058033
    106 C50         21.8770     3.8880    -0.8110 c6         1 KNM      -0.068400
    107 C52         23.0270     2.8480    -0.9380 c6         1 KNM      -0.058033
    108 H44         23.7310     3.1720    -1.7170 hc         1 KNM       0.049367
    109 H3          -4.4980    -0.4250     0.8640 hc         1 KNM       0.052700
    110 H45         -4.2170    -1.9400     1.7220 hc         1 KNM       0.052700
    111 H46         -2.8940    -2.7990    -0.2410 hc         1 KNM       0.038700
    112 H47         -3.1620    -1.2730    -1.0840 hc         1 KNM       0.038700
    113 H48         -1.9410    -0.0500     0.7410 hc         1 KNM       0.044700
    114 H49         -1.6770    -1.5750     1.5870 hc         1 KNM       0.044700
    115 H50         -0.3610    -2.4310    -0.3790 hc         1 KNM       0.042200
    116 H51         -0.6080    -0.8950    -1.2100 hc         1 KNM       0.042200
    117 H52          0.6220     0.3040     0.6200 h1         1 KNM       0.051700
    118 H53          0.8810    -1.2410     1.4570 h1         1 KNM       0.051700
    119 H54          2.3280    -0.2200    -0.8710 hn         1 KNM       0.311500
    120 H55          3.8280    -3.0620    -1.9690 hc         1 KNM       0.054700
    121 H56          3.8500    -1.2700    -1.9630 hc         1 KNM       0.054700
    122 H57          5.2430    -1.3140     0.1140 hc         1 KNM       0.054700
    123 H58          5.2260    -3.0770     0.0960 hc         1 KNM       0.054700
    124 H59          6.3940    -3.0630    -2.1340 hc         1 KNM       0.037700
    125 H60          6.4260    -1.2990    -2.1020 hc         1 KNM       0.037700
    126 H61          7.8270    -1.3610    -0.0180 hc         1 KNM       0.049200
    127 H62          7.7920    -3.1250    -0.0450 hc         1 KNM       0.049200
    128 H63          8.9560    -3.1150    -2.2740 h1         1 KNM       0.053200
    129 H64          9.0220    -1.3410    -2.2250 h1         1 KNM       0.053200
    130 H65         10.7140    -3.2280    -0.7560 hn         1 KNM       0.311500
    131 H66         12.1110    -1.1290     1.5320 hc         1 KNM       0.056700
    132 H67         12.2270    -2.6990     0.6730 hc         1 KNM       0.056700
    133 H68         13.4370    -1.5490    -1.1990 hc         1 KNM       0.053700
    134 H69         13.3560    -0.0250    -0.3160 hc         1 KNM       0.053700
    135 H70         14.7030    -1.0340     1.5520 hc         1 KNM       0.040200
    136 H71         14.7810    -2.5610     0.6700 hc         1 KNM       0.040200
    137 H72         16.0080    -1.4150    -1.2020 hc         1 KNM       0.044700
    138 H73         15.9380     0.1090    -0.3120 hc         1 KNM       0.044700
    139 H74         17.2850    -0.9050     1.5440 h1         1 KNM       0.055700
    140 H75         17.3570    -2.4410     0.6470 h1         1 KNM       0.055700
    141 H76         18.3380    -0.4040    -1.0710 hn         1 KNM       0.308500
    142 H77         21.6560    -1.1450    -0.7090 hc         1 KNM       0.060200
    143 H78         20.4010    -0.3060    -1.6570 hc         1 KNM       0.060200
    144 H79         23.2400     0.7320    -1.4430 hc         1 KNM       0.042867
    145 H80         21.9300     1.5340    -2.2960 hc         1 KNM       0.042867
    146 H81         19.7270     2.1270    -1.0380 hc         1 KNM       0.042867
    147 H82         19.5530     1.7390     0.6680 hc         1 KNM       0.042867
    148 H83         21.5060     0.5530     1.9380 hc         1 KNM       0.042867
    149 H84         22.9830     0.1370     1.0800 hc         1 KNM       0.042867
    150 H85         20.0680     4.1650     0.3810 hc         1 KNM       0.049367
    151 H86         22.0310     4.2880     1.9460 hc         1 KNM       0.039700
    152 H87         20.9290     3.0100     2.4420 hc         1 KNM       0.039700
    153 H88         24.2220     3.6960     0.6930 hc         1 KNM       0.039700
    154 H89         24.6040     2.0160     0.3370 hc         1 KNM       0.039700
    155 H90         23.3060     2.1890     2.4830 hc         1 KNM       0.049367
    156 H91         21.3560     3.9980    -1.7720 hc         1 KNM       0.039700
    157 H92         22.2860     4.8780    -0.5650 hc         1 KNM       0.039700
    158 C16        -16.8900     0.2660    -0.1140 c3         1 KNM      -0.294400
@<TRIPOS>BOND
     1     1     2 2   
     2     2     3 1   
     3     2     4 1   
     4     3    31 1   
     5     3    32 1   
     6     3    73 1   
     7     4     5 1   
     8     4    33 1   
     9     5     6 1   
    10     5    10 1   
    11     5    34 1   
    12     6     7 1   
    13     6    35 1   
    14     6    36 1   
    15     7     8 1   
    16     7     9 1   
    17     7    37 1   
    18     8    38 1   
    19     8    39 1   
    20     8    40 1   
    21     9    41 1   
    22     9    42 1   
    23     9    43 1   
    24    10    11 1   
    25    10    25 2   
    26    11    12 1   
    27    11    44 1   
    28    12    13 1   
    29    12    17 1   
    30    12    45 1   
    31    13    14 1   
    32    13    46 1   
    33    13    47 1   
    34    14    15 1   
    35    14    16 1   
    36    14    48 1   
    37    15    49 1   
    38    15    50 1   
    39    15    51 1   
    40    16    52 1   
    41    16    53 1   
    42    16    54 1   
    43    17    18 2   
    44    17    19 1   
    45    19    20 1   
    46    19    55 1   
    47    20    21 1   
    48    20    26 1   
    49    20    56 1   
    50    21    22 1   
    51    21    59 1   
    52    21    60 1   
    53    22    23 1   
    54    22    24 1   
    55    22    61 1   
    56    23    62 1   
    57    23    63 1   
    58    23    64 1   
    59    24    65 1   
    60    24    66 1   
    61    24    67 1   
    62    26    68 1   
    63    26    69 1   
    64    26   158 1   
    65    27    28 2   
    66    27    29 2   
    67    27    30 1   
    68    27   158 1   
    69    30    70 1   
    70    30    71 1   
    71    30    72 1   
    72    57   158 1   
    73    58   158 1   
    74    73    74 1   
    75    73   109 1   
    76    73   110 1   
    77    74    75 1   
    78    74   111 1   
    79    74   112 1   
    80    75    76 1   
    81    75   113 1   
    82    75   114 1   
    83    76    77 1   
    84    76   115 1   
    85    76   116 1   
    86    77    78 1   
    87    77   117 1   
    88    77   118 1   
    89    78    79 1   
    90    78   119 1   
    91    79    80 2   
    92    79    81 1   
    93    81    82 1   
    94    81   120 1   
    95    81   121 1   
    96    82    83 1   
    97    82   122 1   
    98    82   123 1   
    99    83    84 1   
   100    83   124 1   
   101    83   125 1   
   102    84    85 1   
   103    84   126 1   
   104    84   127 1   
   105    85    86 1   
   106    85   128 1   
   107    85   129 1   
   108    86    87 1   
   109    86   130 1   
   110    87    88 1   
   111    87    89 2   
   112    88    90 1   
   113    88   131 1   
   114    88   132 1   
   115    90    91 1   
   116    90   133 1   
   117    90   134 1   
   118    91    92 1   
   119    91   135 1   
   120    91   136 1   
   121    92    93 1   
   122    92   137 1   
   123    92   138 1   
   124    93    94 1   
   125    93   139 1   
   126    93   140 1   
   127    94    95 1   
   128    94   141 1   
   129    95    96 1   
   130    95    97 2   
   131    96    98 1   
   132    96   142 1   
   133    96   143 1   
   134    98    99 1   
   135    98   100 1   
   136    98   101 1   
   137    99   107 1   
   138    99   144 1   
   139    99   145 1   
   140   100   102 1   
   141   100   146 1   
   142   100   147 1   
   143   101   105 1   
   144   101   148 1   
   145   101   149 1   
   146   102   103 1   
   147   102   106 1   
   148   102   150 1   
   149   103   105 1   
   150   103   151 1   
   151   103   152 1   
   152   104   105 1   
   153   104   107 1   
   154   104   153 1   
   155   104   154 1   
   156   105   155 1   
   157   106   107 1   
   158   106   156 1   
   159   106   157 1   
   160   107   108 1   
@<TRIPOS>SUBSTRUCTURE
     1 KNM         1 TEMP              0 ****  ****    0 ROOT
