@<TRIPOS>MOLECULE
KNN
   20    20     1     0     0
SMALL
No Charge or Current Charge


@<TRIPOS>ATOM
      1 N1          -2.6300    -0.7870    -0.7210 n8         1 KNN      -0.995200
      2 C1          -1.8540    -0.6070     0.5200 c3         1 KNN       0.195100
      3 C2          -0.3740    -0.3550     0.2320 ca         1 KNN      -0.087300
      4 C3           0.1480     0.9530     0.0590 ca         1 KNN      -0.044300
      5 C4           1.5250     1.1220    -0.1950 ca         1 KNN      -0.117000
      6 C5           2.3800     0.0120    -0.2790 ca         1 KNN      -0.104000
      7 C6           1.8650    -1.2820    -0.1090 ca         1 KNN      -0.118000
      8 C7           0.4960    -1.4630     0.1460 ca         1 KNN      -0.106000
      9 C8          -0.7460     2.1880     0.1420 c3         1 KNN      -0.051800
     10 H1          -2.2630    -1.6060    -1.2190 hn         1 KNN       0.393500
     11 H2          -2.2860     0.2230     1.0950 h1         1 KNN       0.032200
     12 H3          -1.9570    -1.5170     1.1290 h1         1 KNN       0.032200
     13 H4           1.9370     2.1200    -0.3280 ha         1 KNN       0.110000
     14 H5           3.4400     0.1540    -0.4750 ha         1 KNN       0.111000
     15 H6           2.5250    -2.1430    -0.1730 ha         1 KNN       0.111000
     16 H7           0.1080    -2.4700     0.2780 ha         1 KNN       0.105000
     17 H8          -1.1300     2.3270     1.1600 hc         1 KNN       0.046367
     18 H9          -0.2050     3.1020    -0.1310 hc         1 KNN       0.046367
     19 H10         -1.6030     2.1040    -0.5360 hc         1 KNN       0.046367
     20 H11         -3.5900    -1.0590    -0.4770 hn         1 KNN       0.393500
@<TRIPOS>BOND
     1     1     2 1   
     2     1    10 1   
     3     1    20 1   
     4     2     3 1   
     5     2    11 1   
     6     2    12 1   
     7     3     4 ar  
     8     3     8 ar  
     9     4     5 ar  
    10     4     9 1   
    11     5     6 ar  
    12     5    13 1   
    13     6     7 ar  
    14     6    14 1   
    15     7     8 ar  
    16     7    15 1   
    17     8    16 1   
    18     9    17 1   
    19     9    18 1   
    20     9    19 1   
@<TRIPOS>SUBSTRUCTURE
     1 KNN         1 TEMP              0 ****  ****    0 ROOT
