@<TRIPOS>MOLECULE
KNN
   20    20     1     0     0
SMALL
abcg2


@<TRIPOS>ATOM
      1 N1          -2.5800    -0.5210    -0.6860 n8         1 KNN      -0.995200
      2 C1          -1.7980    -0.6750     0.5350 c3         1 KNN       0.195100
      3 C2          -0.3410    -0.4060     0.2710 ca         1 KNN      -0.087300
      4 C3           0.1250     0.8960     0.0330 ca         1 KNN      -0.044300
      5 C4           1.4770     1.0850    -0.2390 ca         1 KNN      -0.117000
      6 C5           2.3650     0.0170    -0.2790 ca         1 KNN      -0.104000
      7 C6           1.9040    -1.2680    -0.0420 ca         1 KNN      -0.118000
      8 C7           0.5560    -1.4680     0.2300 ca         1 KNN      -0.106000
      9 C8          -0.8080     2.0710     0.0860 c3         1 KNN      -0.051800
     10 H1          -2.3390    -1.2630    -1.3320 hn         1 KNN       0.393500
     11 H2          -2.1800     0.0370     1.2710 h1         1 KNN       0.032200
     12 H3          -1.8960    -1.6690     0.9930 h1         1 KNN       0.032200
     13 H4           1.8420     2.0880    -0.4250 ha         1 KNN       0.110000
     14 H5           3.4120     0.1930    -0.4920 ha         1 KNN       0.111000
     15 H6           2.5850    -2.1100    -0.0690 ha         1 KNN       0.111000
     16 H7           0.1920    -2.4720     0.4160 ha         1 KNN       0.105000
     17 H8          -1.2010     2.2220     1.0950 hc         1 KNN       0.046367
     18 H9          -0.3050     2.9910    -0.2100 hc         1 KNN       0.046367
     19 H10         -1.6660     1.9170    -0.5690 hc         1 KNN       0.046367
     20 H11         -3.5610    -0.6490    -0.4710 hn         1 KNN       0.393500
@<TRIPOS>BOND
     1     1     2 1   
     2     1    10 1   
     3     1    20 1   
     4     2     3 1   
     5     2    11 1   
     6     2    12 1   
     7     3     4 ar  
     8     3     8 ar  
     9     4     5 ar  
    10     4     9 1   
    11     5     6 ar  
    12     5    13 1   
    13     6     7 ar  
    14     6    14 1   
    15     7     8 ar  
    16     7    15 1   
    17     8    16 1   
    18     9    17 1   
    19     9    18 1   
    20     9    19 1   
@<TRIPOS>SUBSTRUCTURE
     1 KNN         1 TEMP              0 ****  ****    0 ROOT
