@<TRIPOS>MOLECULE
KNP
   18    18     1     0     0
SMALL
abcg2


@<TRIPOS>ATOM
      1 F1          -0.7240    -2.3380     0.2420 f          1 KNP      -0.163000
      2 F2          -0.7290     2.3320     0.1800 f          1 KNP      -0.163000
      3 O1           3.8160    -0.0050    -0.9930 o          1 KNP      -0.713000
      4 O2           0.6250     0.0020     0.5610 os         1 KNP      -0.304100
      5 O3           3.1960    -0.0010     1.1550 o          1 KNP      -0.713000
      6 C1           2.9830    -0.0040    -0.0660 c          1 KNP       0.730000
      7 C2           1.5250    -0.0070    -0.5480 c3         1 KNP       0.010600
      8 C3          -3.4110    -0.0130    -0.3740 ca         1 KNP      -0.096000
      9 C4          -2.7400    -1.2170    -0.2130 ca         1 KNP      -0.173000
     10 C5          -1.3910    -1.1890     0.0790 ca         1 KNP       0.159000
     11 C6          -0.6800    -0.0030     0.2250 ca         1 KNP       0.068100
     12 C7          -1.3930     1.1780     0.0480 ca         1 KNP       0.159000
     13 C8          -2.7430     1.1960    -0.2450 ca         1 KNP      -0.173000
     14 H2           1.3550    -0.8940    -1.1700 h1         1 KNP       0.015200
     15 H3           1.3550     0.8670    -1.1870 h1         1 KNP       0.015200
     16 H4          -4.4690    -0.0180    -0.6000 ha         1 KNP       0.103000
     17 H5          -3.2540    -2.1640    -0.3120 ha         1 KNP       0.119000
     18 H6          -3.2590     2.1380    -0.3690 ha         1 KNP       0.119000
@<TRIPOS>BOND
     1     1    10 1   
     2     2    12 1   
     3     3     6 1   
     4     4     7 1   
     5     4    11 1   
     6     5     6 1   
     7     6     7 1   
     8     7    14 1   
     9     7    15 1   
    10     8     9 ar  
    11     8    13 ar  
    12     8    16 1   
    13     9    10 ar  
    14     9    17 1   
    15    10    11 ar  
    16    11    12 ar  
    17    12    13 ar  
    18    13    18 1   
@<TRIPOS>SUBSTRUCTURE
     1 KNP         1 TEMP              0 ****  ****    0 ROOT
