@<TRIPOS>MOLECULE
KNP
   18    18     1     0     0
SMALL
No Charge or Current Charge


@<TRIPOS>ATOM
      1 F1          -1.0660    -2.4660     0.8830 f          1 KNP      -0.163000
      2 F2          -0.5670     1.9270    -1.0580 f          1 KNP      -0.163000
      3 O1           4.0440     0.6620    -0.4210 o          1 KNP      -0.713000
      4 O2           0.6510    -0.5160     0.0460 os         1 KNP      -0.304100
      5 O3           3.2970    -1.1870     0.3870 o          1 KNP      -0.713000
      6 C1           3.1210    -0.0800    -0.1070 c          1 KNP       0.730000
      7 C2           1.6690     0.4320    -0.3580 c3         1 KNP       0.010600
      8 C3          -3.5430    -0.0230    -0.2420 ca         1 KNP      -0.096000
      9 C4          -2.9770    -1.1920     0.2860 ca         1 KNP      -0.173000
     10 C5          -1.5810    -1.3250     0.3680 ca         1 KNP       0.159000
     11 C6          -0.7190    -0.2960    -0.0740 ca         1 KNP       0.068100
     12 C7          -1.3070     0.8880    -0.6090 ca         1 KNP       0.159000
     13 C8          -2.7060     1.0120    -0.6870 ca         1 KNP      -0.173000
     14 H2           1.5800     0.6480    -1.4300 h1         1 KNP       0.015200
     15 H3           1.5530     1.3710     0.1980 h1         1 KNP       0.015200
     16 H4          -4.6240     0.0820    -0.3060 ha         1 KNP       0.103000
     17 H5          -3.6180    -1.9980     0.6340 ha         1 KNP       0.119000
     18 H6          -3.1420     1.9200    -1.0970 ha         1 KNP       0.119000
@<TRIPOS>BOND
     1     1    10 1   
     2     2    12 1   
     3     3     6 1   
     4     4     7 1   
     5     4    11 1   
     6     5     6 1   
     7     6     7 1   
     8     7    14 1   
     9     7    15 1   
    10     8     9 ar  
    11     8    13 ar  
    12     8    16 1   
    13     9    10 ar  
    14     9    17 1   
    15    10    11 ar  
    16    11    12 ar  
    17    12    13 ar  
    18    13    18 1   
@<TRIPOS>SUBSTRUCTURE
     1 KNP         1 TEMP              0 ****  ****    0 ROOT
