@<TRIPOS>MOLECULE
KNR
   93    94     1     0     0
SMALL
abcg2


@<TRIPOS>ATOM
      1 N1           9.4780   -12.1180     5.1700 n2         1 KNR      -0.906100
      2 C7           2.3660   -14.9480     4.0930 c          1 KNR       0.583100
      3 C8           1.7290   -13.9900     3.0820 c3         1 KNR       0.034700
      4 N2          10.0000   -11.3740     7.3520 nv         1 KNR      -1.083200
      5 C9           1.3170   -14.7170     1.8080 c3         1 KNR      -0.084400
      6 C1           7.2390   -13.4110     6.1550 c3         1 KNR       0.155500
      7 C5           3.7230   -14.7310     7.2080 c3         1 KNR      -0.096400
      8 C6           2.5650   -15.4330     6.5060 c3         1 KNR       0.104000
      9 N3           2.0400   -14.7030     5.3710 ns         1 KNR      -0.499900
     10 C4           4.9260   -14.5090     6.3040 c3         1 KNR      -0.074400
     11 C3           6.1200   -13.9400     7.0600 c3         1 KNR      -0.080400
     12 C2           9.2710   -12.0850     6.4400 c2         1 KNR       0.808100
     13 N4           2.6660   -12.9260     2.7810 ns         1 KNR      -0.489900
     14 N            8.2990   -12.8830     6.9820 nu         1 KNR      -0.925400
     15 C            7.7320   -14.4960     5.2060 c          1 KNR       0.609100
     16 O            7.1480   -14.7380     4.1590 o          1 KNR      -0.591100
     17 C10          0.5070   -13.8450     0.8580 c3         1 KNR      -0.076400
     18 C11          0.1070   -14.5880    -0.4110 c3         1 KNR      -0.076400
     19 C12         -0.7210   -13.7310    -1.3570 c3         1 KNR      -0.089100
     20 C13          2.6630   -11.7390     3.4030 c          1 KNR       0.591100
     21 C14          3.6410   -10.6880     2.8730 c3         1 KNR       0.028700
     22 C15          2.8650    -9.4640     2.3790 c3         1 KNR      -0.088400
     23 C16          3.7830    -8.3120     1.9820 c3         1 KNR      -0.073400
     24 C17          3.0430    -7.0100     1.6900 c3         1 KNR      -0.079400
     25 C18          2.1040    -7.0830     0.4940 c3         1 KNR       0.146800
     26 C19          5.8330   -11.4650     2.0560 c          1 KNR       0.603100
     27 C20          6.5750   -11.9310     0.8130 c3         1 KNR      -0.107100
     28 C21          8.0620   -11.7850     0.9440 ca         1 KNR      -0.076300
     29 C22          8.8190   -12.7900     1.5340 ca         1 KNR      -0.055000
     30 C23         10.1940   -12.6590     1.6990 ca         1 KNR      -0.098300
     31 C24         11.0140   -13.7600     2.3270 c3         1 KNR       0.143300
     32 C25         10.1430   -15.6940     3.5420 c          1 KNR       0.586100
     33 C26          9.4150   -16.1930     4.7870 c3         1 KNR       0.021000
     34 C27         10.8140   -11.4950     1.2560 ca         1 KNR      -0.105000
     35 C28         10.0710   -10.4880     0.6550 ca         1 KNR      -0.117000
     36 C29          8.7000   -10.6290     0.5030 ca         1 KNR      -0.102000
     37 N5           1.5410    -5.7710     0.2000 n8         1 KNR      -0.994200
     38 N6           4.5270   -11.1810     1.8470 ns         1 KNR      -0.529900
     39 N7          10.3540   -14.3770     3.4520 ns         1 KNR      -0.502900
     40 N8           8.8070   -15.1900     5.6130 ns         1 KNR      -0.500900
     41 O2           6.3630   -11.3860     3.1490 o          1 KNR      -0.569100
     42 H1          10.2100   -11.4730     4.8990 hn         1 KNR       0.387400
     43 H2           0.8430   -13.5300     3.5240 h1         1 KNR       0.076700
     44 H3           9.5530   -11.1010     8.2130 hn         1 KNR       0.463000
     45 H4          10.6110   -10.6650     6.9820 hn         1 KNR       0.463000
     46 H5           0.7220   -15.5900     2.0900 hc         1 KNR       0.062200
     47 H6           2.2050   -15.1020     1.3000 hc         1 KNR       0.062200
     48 H7           6.8190   -12.6280     5.5160 h1         1 KNR       0.102700
     49 H8           4.0100   -15.3450     8.0670 hc         1 KNR       0.040200
     50 H9           3.3810   -13.7740     7.6160 hc         1 KNR       0.040200
     51 H10          1.7480   -15.5880     7.2130 h1         1 KNR       0.055700
     52 H11          2.8800   -16.4170     6.1620 h1         1 KNR       0.055700
     53 H12          1.4630   -13.9000     5.5650 hn         1 KNR       0.323500
     54 H13          4.6530   -13.8280     5.4930 hc         1 KNR       0.066700
     55 H14          5.1980   -15.4560     5.8340 hc         1 KNR       0.066700
     56 H15          6.5260   -14.6930     7.7420 hc         1 KNR       0.038700
     57 H16          5.7870   -13.1010     7.6800 hc         1 KNR       0.038700
     58 H17          3.3460   -13.0880     2.0530 hn         1 KNR       0.333500
     59 H18          8.0680   -12.7320     7.9520 hn         1 KNR       0.478000
     60 H19          1.0770   -12.9500     0.5850 hc         1 KNR       0.037700
     61 H20         -0.3930   -13.4900     1.3700 hc         1 KNR       0.037700
     62 H21         -0.4540   -15.4870    -0.1430 hc         1 KNR       0.040700
     63 H22          1.0090   -14.9340    -0.9250 hc         1 KNR       0.040700
     64 H23         -0.9840   -14.2750    -2.2640 hc         1 KNR       0.032033
     65 H24         -1.6510   -13.4080    -0.8840 hc         1 KNR       0.032033
     66 H25         -0.1760   -12.8340    -1.6560 hc         1 KNR       0.032033
     67 H26          4.2550   -10.3870     3.7250 h1         1 KNR       0.105700
     68 H27          2.1970    -9.1370     3.1780 hc         1 KNR       0.056200
     69 H28          2.2280    -9.7610     1.5390 hc         1 KNR       0.056200
     70 H29          4.3760    -8.5900     1.1060 hc         1 KNR       0.044200
     71 H30          4.4980    -8.1380     2.7910 hc         1 KNR       0.044200
     72 H31          3.7750    -6.2200     1.5030 hc         1 KNR       0.049700
     73 H32          2.4780    -6.7040     2.5780 hc         1 KNR       0.049700
     74 H33          1.3370    -7.8500     0.6730 h1         1 KNR       0.025200
     75 H34          2.6710    -7.4170    -0.3800 h1         1 KNR       0.025200
     76 H35          6.2090   -11.3910    -0.0640 hc         1 KNR       0.064700
     77 H36          6.3070   -12.9810     0.6570 hc         1 KNR       0.064700
     78 H37          8.3200   -13.6850     1.8870 ha         1 KNR       0.139000
     79 H38         11.2230   -14.5330     1.5870 h1         1 KNR       0.057200
     80 H39         11.9830   -13.3550     2.6350 h1         1 KNR       0.057200
     81 H40          8.6740   -16.9220     4.4530 h1         1 KNR       0.076700
     82 H41         10.1390   -16.7390     5.3920 h1         1 KNR       0.076700
     83 H42         11.8830   -11.3730     1.3830 ha         1 KNR       0.107000
     84 H43         10.5630    -9.5860     0.3130 ha         1 KNR       0.109000
     85 H44          8.1220    -9.8370     0.0410 ha         1 KNR       0.104000
     86 H45          0.9270    -5.8420    -0.6020 hn         1 KNR       0.391500
     87 H46          0.9440    -5.4890     0.9690 hn         1 KNR       0.391500
     88 H48          4.1890   -11.1720     0.8960 hn         1 KNR       0.310500
     89 H49          9.9910   -13.7350     4.1630 hn         1 KNR       0.360500
     90 H50          9.2700   -14.9020     6.4610 hn         1 KNR       0.328500
     91 O4           3.1160   -15.8440     3.7330 o          1 KNR      -0.591100
     92 O1          10.5230   -16.5160     2.7160 o          1 KNR      -0.628100
     93 O3           1.9140   -11.4630     4.3290 o          1 KNR      -0.625100
@<TRIPOS>BOND
     1     1    12 2   
     2     1    42 1   
     3     2     3 1   
     4     2     9 1   
     5     2    91 2   
     6     3     5 1   
     7     3    13 1   
     8     3    43 1   
     9     4    12 1   
    10     4    44 1   
    11     4    45 1   
    12     5    17 1   
    13     5    46 1   
    14     5    47 1   
    15     6    11 1   
    16     6    14 1   
    17     6    15 1   
    18     6    48 1   
    19     7     8 1   
    20     7    10 1   
    21     7    49 1   
    22     7    50 1   
    23     8     9 1   
    24     8    51 1   
    25     8    52 1   
    26     9    53 1   
    27    10    11 1   
    28    10    54 1   
    29    10    55 1   
    30    11    56 1   
    31    11    57 1   
    32    12    14 1   
    33    13    20 1   
    34    13    58 1   
    35    14    59 1   
    36    15    16 2   
    37    15    40 1   
    38    17    18 1   
    39    17    60 1   
    40    17    61 1   
    41    18    19 1   
    42    18    62 1   
    43    18    63 1   
    44    19    64 1   
    45    19    65 1   
    46    19    66 1   
    47    20    21 1   
    48    20    93 2   
    49    21    22 1   
    50    21    38 1   
    51    21    67 1   
    52    22    23 1   
    53    22    68 1   
    54    22    69 1   
    55    23    24 1   
    56    23    70 1   
    57    23    71 1   
    58    24    25 1   
    59    24    72 1   
    60    24    73 1   
    61    25    37 1   
    62    25    74 1   
    63    25    75 1   
    64    26    27 1   
    65    26    38 1   
    66    26    41 2   
    67    27    28 1   
    68    27    76 1   
    69    27    77 1   
    70    28    29 ar  
    71    28    36 ar  
    72    29    30 ar  
    73    29    78 1   
    74    30    31 1   
    75    30    34 ar  
    76    31    39 1   
    77    31    79 1   
    78    31    80 1   
    79    32    33 1   
    80    32    39 1   
    81    32    92 2   
    82    33    40 1   
    83    33    81 1   
    84    33    82 1   
    85    34    35 ar  
    86    34    83 1   
    87    35    36 ar  
    88    35    84 1   
    89    36    85 1   
    90    37    86 1   
    91    37    87 1   
    92    38    88 1   
    93    39    89 1   
    94    40    90 1   
@<TRIPOS>SUBSTRUCTURE
     1 KNR         1 TEMP              0 ****  ****    0 ROOT
