@<TRIPOS>MOLECULE
KNR
   93    94     1     0     0
SMALL
No Charge or Current Charge


@<TRIPOS>ATOM
      1 N1           9.8570   -12.2810     6.2430 n2         1 KNR      -0.906100
      2 C7           2.5700   -14.9360     3.4460 c          1 KNR       0.583100
      3 C8           1.6520   -13.7120     3.1790 c3         1 KNR       0.034700
      4 N2           8.6300   -11.7510     8.0200 nv         1 KNR      -1.083200
      5 C9           0.4670   -14.0920     2.2540 c3         1 KNR      -0.084400
      6 C1           7.4930   -14.1760     5.9430 c3         1 KNR       0.155500
      7 C5           4.1260   -16.3000     6.1230 c3         1 KNR      -0.096400
      8 C6           3.0600   -16.7730     5.1060 c3         1 KNR       0.104000
      9 N3           2.2590   -15.6660     4.5750 ns         1 KNR      -0.499900
     10 C4           5.2700   -15.4590     5.5070 c3         1 KNR      -0.074400
     11 C3           6.3250   -15.0050     6.5450 c3         1 KNR      -0.080400
     12 C2           8.7730   -12.2760     6.8430 c2         1 KNR       0.808100
     13 N4           2.4690   -12.6270     2.5970 ns         1 KNR      -0.489900
     14 N            8.1570   -13.4090     7.0440 nu         1 KNR      -0.925400
     15 C            8.4900   -15.0690     5.1170 c          1 KNR       0.609100
     16 O            8.2220   -15.5660     4.0300 o          1 KNR      -0.591100
     17 C10         -0.5480   -12.9500     2.0120 c3         1 KNR      -0.076400
     18 C11         -1.7480   -13.3840     1.1430 c3         1 KNR      -0.076400
     19 C12         -2.7560   -12.2450     0.8960 c3         1 KNR      -0.089100
     20 C13          2.4040   -11.2950     2.9500 c          1 KNR       0.591100
     21 C14          3.5200   -10.3810     2.3570 c3         1 KNR       0.028700
     22 C15          2.9430    -9.3560     1.3510 c3         1 KNR      -0.088400
     23 C16          3.9810    -8.3160     0.8550 c3         1 KNR      -0.073400
     24 C17          3.3890    -7.2110    -0.0530 c3         1 KNR      -0.079400
     25 C18          2.8410    -7.7270    -1.4010 c3         1 KNR       0.146800
     26 C19          5.5990   -11.8220     2.4630 c          1 KNR       0.603100
     27 C20          6.7120   -12.4620     1.6270 c3         1 KNR      -0.107100
     28 C21          8.0500   -11.7640     1.8570 ca         1 KNR      -0.076300
     29 C22          9.1770   -12.5080     2.2550 ca         1 KNR      -0.055000
     30 C23         10.4100   -11.8730     2.5080 ca         1 KNR      -0.098300
     31 C24         11.6190   -12.6860     2.9580 c3         1 KNR       0.143300
     32 C25         11.5590   -15.0040     3.9580 c          1 KNR       0.586100
     33 C26         10.8920   -15.8840     5.0470 c3         1 KNR       0.021000
     34 C27         10.5140   -10.4800     2.3360 ca         1 KNR      -0.105000
     35 C28          9.3990    -9.7330     1.9200 ca         1 KNR      -0.117000
     36 C29          8.1710   -10.3710     1.6820 ca         1 KNR      -0.102000
     37 N5           2.3580    -6.6200    -2.2460 n8         1 KNR      -0.994200
     38 N6           4.6250   -11.1610     1.7420 ns         1 KNR      -0.529900
     39 N7          11.2550   -13.6590     3.9880 ns         1 KNR      -0.502900
     40 N8           9.7350   -15.2200     5.6880 ns         1 KNR      -0.500900
     41 O2           5.5570   -11.9040     3.6810 o          1 KNR      -0.569100
     42 H1          10.3680   -11.4440     6.5390 hn         1 KNR       0.387400
     43 H2           1.2580   -13.3810     4.1490 h1         1 KNR       0.076700
     44 H3           8.4790   -10.7530     7.9530 hn         1 KNR       0.463000
     45 H4           9.4320   -11.9680     8.5940 hn         1 KNR       0.463000
     46 H5          -0.0630   -14.9450     2.6980 hc         1 KNR       0.062200
     47 H6           0.8610   -14.4370     1.2890 hc         1 KNR       0.062200
     48 H7           7.0650   -13.4630     5.2240 h1         1 KNR       0.102700
     49 H8           4.5620   -17.1870     6.6000 hc         1 KNR       0.040200
     50 H9           3.6340   -15.7260     6.9180 hc         1 KNR       0.040200
     51 H10          2.3800   -17.4760     5.6050 h1         1 KNR       0.055700
     52 H11          3.5440   -17.3120     4.2800 h1         1 KNR       0.055700
     53 H12          1.4520   -15.3610     5.1080 hn         1 KNR       0.323500
     54 H13          4.8520   -14.5650     5.0300 hc         1 KNR       0.066700
     55 H14          5.7500   -16.0480     4.7170 hc         1 KNR       0.066700
     56 H15          6.7340   -15.8790     7.0670 hc         1 KNR       0.038700
     57 H16          5.8080   -14.4000     7.3000 hc         1 KNR       0.038700
     58 H17          3.2290   -12.8830     1.9780 hn         1 KNR       0.333500
     59 H18          7.6270   -13.3030     7.8980 hn         1 KNR       0.478000
     60 H19         -0.0430   -12.1090     1.5200 hc         1 KNR       0.037700
     61 H20         -0.9160   -12.5840     2.9780 hc         1 KNR       0.037700
     62 H21         -2.2670   -14.2200     1.6290 hc         1 KNR       0.040700
     63 H22         -1.3830   -13.7520     0.1760 hc         1 KNR       0.040700
     64 H23         -3.5890   -12.5990     0.2760 hc         1 KNR       0.032033
     65 H24         -3.1660   -11.8780     1.8440 hc         1 KNR       0.032033
     66 H25         -2.2750   -11.4070     0.3780 hc         1 KNR       0.032033
     67 H26          3.9300    -9.8280     3.2120 h1         1 KNR       0.105700
     68 H27          2.1130    -8.8220     1.8290 hc         1 KNR       0.056200
     69 H28          2.5200    -9.8970     0.4960 hc         1 KNR       0.056200
     70 H29          4.7890    -8.8240     0.3140 hc         1 KNR       0.044200
     71 H30          4.4430    -7.8360     1.7270 hc         1 KNR       0.044200
     72 H31          4.1740    -6.4700    -0.2500 hc         1 KNR       0.049700
     73 H32          2.5920    -6.6870     0.4910 hc         1 KNR       0.049700
     74 H33          2.0080    -8.4220    -1.2280 h1         1 KNR       0.025200
     75 H34          3.6350    -8.2600    -1.9430 h1         1 KNR       0.025200
     76 H35          6.4550   -12.4130     0.5620 hc         1 KNR       0.064700
     77 H36          6.7840   -13.5150     1.9210 hc         1 KNR       0.064700
     78 H37          9.0930   -13.5860     2.3750 ha         1 KNR       0.139000
     79 H38         12.0480   -13.1980     2.0870 h1         1 KNR       0.057200
     80 H39         12.3880   -12.0190     3.3690 h1         1 KNR       0.057200
     81 H40         10.5710   -16.8260     4.5850 h1         1 KNR       0.076700
     82 H41         11.6470   -16.1010     5.8120 h1         1 KNR       0.076700
     83 H42         11.4590    -9.9740     2.5220 ha         1 KNR       0.107000
     84 H43          9.4860    -8.6570     1.7860 ha         1 KNR       0.109000
     85 H44          7.3140    -9.7810     1.3650 ha         1 KNR       0.104000
     86 H45          1.9490    -7.0090    -3.1050 hn         1 KNR       0.391500
     87 H46          1.5590    -6.1710    -1.7820 hn         1 KNR       0.391500
     88 H48          4.7390   -11.1340     0.7350 hn         1 KNR       0.310500
     89 H49         10.6710   -13.3390     4.7620 hn         1 KNR       0.360500
     90 H50          9.8660   -14.6740     6.5370 hn         1 KNR       0.328500
     91 O4           3.5190   -15.2220     2.7260 o          1 KNR      -0.591100
     92 O1          12.2850   -15.4810     3.0950 o          1 KNR      -0.628100
     93 O3           1.5530   -10.8730     3.7220 o          1 KNR      -0.625100
@<TRIPOS>BOND
     1     1    12 2   
     2     1    42 1   
     3     2     3 1   
     4     2     9 1   
     5     2    91 2   
     6     3     5 1   
     7     3    13 1   
     8     3    43 1   
     9     4    12 1   
    10     4    44 1   
    11     4    45 1   
    12     5    17 1   
    13     5    46 1   
    14     5    47 1   
    15     6    11 1   
    16     6    14 1   
    17     6    15 1   
    18     6    48 1   
    19     7     8 1   
    20     7    10 1   
    21     7    49 1   
    22     7    50 1   
    23     8     9 1   
    24     8    51 1   
    25     8    52 1   
    26     9    53 1   
    27    10    11 1   
    28    10    54 1   
    29    10    55 1   
    30    11    56 1   
    31    11    57 1   
    32    12    14 1   
    33    13    20 1   
    34    13    58 1   
    35    14    59 1   
    36    15    16 2   
    37    15    40 1   
    38    17    18 1   
    39    17    60 1   
    40    17    61 1   
    41    18    19 1   
    42    18    62 1   
    43    18    63 1   
    44    19    64 1   
    45    19    65 1   
    46    19    66 1   
    47    20    21 1   
    48    20    93 2   
    49    21    22 1   
    50    21    38 1   
    51    21    67 1   
    52    22    23 1   
    53    22    68 1   
    54    22    69 1   
    55    23    24 1   
    56    23    70 1   
    57    23    71 1   
    58    24    25 1   
    59    24    72 1   
    60    24    73 1   
    61    25    37 1   
    62    25    74 1   
    63    25    75 1   
    64    26    27 1   
    65    26    38 1   
    66    26    41 2   
    67    27    28 1   
    68    27    76 1   
    69    27    77 1   
    70    28    29 ar  
    71    28    36 ar  
    72    29    30 ar  
    73    29    78 1   
    74    30    31 1   
    75    30    34 ar  
    76    31    39 1   
    77    31    79 1   
    78    31    80 1   
    79    32    33 1   
    80    32    39 1   
    81    32    92 2   
    82    33    40 1   
    83    33    81 1   
    84    33    82 1   
    85    34    35 ar  
    86    34    83 1   
    87    35    36 ar  
    88    35    84 1   
    89    36    85 1   
    90    37    86 1   
    91    37    87 1   
    92    38    88 1   
    93    39    89 1   
    94    40    90 1   
@<TRIPOS>SUBSTRUCTURE
     1 KNR         1 TEMP              0 ****  ****    0 ROOT
