@<TRIPOS>MOLECULE
KNS
   60    62     1     0     0
SMALL
abcg2


@<TRIPOS>ATOM
      1 C12         -1.9640     2.9040     0.2250 ca         1 KNS       0.130000
      2 C13         -0.9250     3.7970     0.4210 ca         1 KNS       0.134000
      3 C11         -1.7550     1.7020    -0.4280 ca         1 KNS      -0.089300
      4 C14          0.3500     3.5110    -0.0140 ca         1 KNS      -0.133000
      5 C23          5.8190    -0.7980     0.2080 c5         1 KNS       0.139300
      6 C15          0.5970     2.3050    -0.6680 ca         1 KNS      -0.063300
      7 C17          1.9910     1.9400    -1.0890 c3         1 KNS      -0.029100
      8 C21          4.7960     0.3790    -2.6400 c3         1 KNS       0.157100
      9 C18          2.7590     1.2670     0.0480 c3         1 KNS      -0.061400
     10 C02         -6.2670    -1.6830     0.3570 ca         1 KNS       0.601900
     11 C03         -6.0710    -3.0350     0.0220 ca         1 KNS      -0.233000
     12 C04         -4.7840    -3.5070    -0.1330 ca         1 KNS       0.000700
     13 C05         -3.7260    -2.6110     0.0590 ca         1 KNS      -0.216000
     14 C06         -4.0100    -1.2980     0.3860 ca         1 KNS       0.397300
     15 C08         -2.9100    -0.2900     0.5640 c3         1 KNS      -0.124700
     16 C09         -2.8620     0.7040    -0.6060 c3         1 KNS      -0.025100
     17 C16         -0.4610     1.4260    -0.8670 ca         1 KNS      -0.101000
     18 C22          4.8860    -1.3130    -0.8920 c5         1 KNS       0.128800
     19 C24          4.9450     0.2620     0.8540 c5         1 KNS      -0.093400
     20 C25          4.1830     0.8780    -0.3270 c5         1 KNS       0.175500
     21 C27          7.1280    -2.7150     0.6420 c3         1 KNS       0.162600
     22 C28          7.7020    -3.5120     1.7920 c3         1 KNS      -0.093100
     23 F12         -3.1840     3.2280     0.6800 f          1 KNS      -0.160000
     24 F13         -1.1800     4.9520     1.0490 f          1 KNS      -0.165000
     25 N01         -5.2550    -0.8410     0.5300 nb         1 KNS      -0.749000
     26 N02         -7.5240    -1.1940     0.5650 nv         1 KNS      -1.054900
     27 N21          4.2190    -0.1240    -1.4090 n3         1 KNS      -0.725600
     28 O26          6.2330    -1.7490     1.1520 os         1 KNS      -0.449000
     29 H1           1.1450     4.2270     0.1580 ha         1 KNS       0.132000
     30 H2           6.6970    -0.3260    -0.2600 h1         1 KNS       0.032700
     31 H3           1.9500     1.2640    -1.9450 hc         1 KNS       0.054200
     32 H4           2.5300     2.8350    -1.4130 hc         1 KNS       0.054200
     33 H5           4.7390    -0.3830    -3.4180 h1         1 KNS       0.030033
     34 H6           4.2290     1.2410    -2.9920 h1         1 KNS       0.030033
     35 H7           5.8470     0.6910    -2.5510 h1         1 KNS       0.030033
     36 H8           2.7920     1.9410     0.9100 hc         1 KNS       0.048200
     37 H9           2.2190     0.3710     0.3730 hc         1 KNS       0.048200
     38 H10         -6.9230    -3.6910    -0.1080 ha         1 KNS       0.118000
     39 H11         -2.6990    -2.9380    -0.0510 ha         1 KNS       0.121000
     40 H12         -4.2720    -5.0010    -1.5780 hc         1 KNS       0.046367
     41 H13         -3.6700    -5.3360     0.0360 hc         1 KNS       0.046367
     42 H14         -5.3820    -5.5670    -0.3340 hc         1 KNS       0.046367
     43 H15         -3.0650     0.2570     1.4970 hc         1 KNS       0.059200
     44 H16         -1.9480    -0.7990     0.6440 hc         1 KNS       0.059200
     45 H17         -3.8300     1.1980    -0.6990 hc         1 KNS       0.062700
     46 H18         -2.6980     0.1540    -1.5350 hc         1 KNS       0.062700
     47 H19         -0.2800     0.4880    -1.3810 ha         1 KNS       0.123000
     48 H20          5.3960    -1.8500    -1.6940 h1         1 KNS       0.057700
     49 H21          4.1620    -2.0060    -0.4450 h1         1 KNS       0.057700
     50 H22          4.2500    -0.2250     1.5480 hc         1 KNS       0.063200
     51 H23          5.5070     1.0080     1.4170 hc         1 KNS       0.063200
     52 H24          4.7100     1.7820    -0.6590 h1         1 KNS       0.039700
     53 H25          7.9380    -2.2280     0.0820 h1         1 KNS       0.019700
     54 H26          6.6190    -3.3880    -0.0600 h1         1 KNS       0.019700
     55 H27          8.2560    -2.8730     2.4800 hc         1 KNS       0.043367
     56 H28          6.9200    -4.0250     2.3530 hc         1 KNS       0.043367
     57 H29          8.3890    -4.2680     1.4100 hc         1 KNS       0.043367
     58 H30         -8.2950    -1.7040     0.1660 hn         1 KNS       0.469500
     59 H31         -7.6250    -0.1930     0.5200 hn         1 KNS       0.469500
     60 C07         -4.5180    -4.9310    -0.5160 c3         1 KNS      -0.053800
@<TRIPOS>BOND
     1     1     2 ar  
     2     1     3 ar  
     3     1    23 1   
     4     2     4 ar  
     5     2    24 1   
     6     3    16 1   
     7     3    17 ar  
     8     4     6 ar  
     9     4    29 1   
    10     5    18 1   
    11     5    19 1   
    12     5    28 1   
    13     5    30 1   
    14     6     7 1   
    15     6    17 ar  
    16     7     9 1   
    17     7    31 1   
    18     7    32 1   
    19     8    27 1   
    20     8    33 1   
    21     8    34 1   
    22     8    35 1   
    23     9    20 1   
    24     9    36 1   
    25     9    37 1   
    26    10    11 ar  
    27    10    25 ar  
    28    10    26 1   
    29    11    12 ar  
    30    11    38 1   
    31    12    13 ar  
    32    12    60 1   
    33    13    14 ar  
    34    13    39 1   
    35    14    15 1   
    36    14    25 ar  
    37    15    16 1   
    38    15    43 1   
    39    15    44 1   
    40    16    45 1   
    41    16    46 1   
    42    17    47 1   
    43    18    27 1   
    44    18    48 1   
    45    18    49 1   
    46    19    20 1   
    47    19    50 1   
    48    19    51 1   
    49    20    27 1   
    50    20    52 1   
    51    21    22 1   
    52    21    28 1   
    53    21    53 1   
    54    21    54 1   
    55    22    55 1   
    56    22    56 1   
    57    22    57 1   
    58    26    58 1   
    59    26    59 1   
    60    40    60 1   
    61    41    60 1   
    62    42    60 1   
@<TRIPOS>SUBSTRUCTURE
     1 KNS         1 TEMP              0 ****  ****    0 ROOT
