@<TRIPOS>MOLECULE
KNS
   60    62     1     0     0
SMALL
No Charge or Current Charge


@<TRIPOS>ATOM
      1 C12         -1.9460     2.9980     0.1610 ca         1 KNS       0.130000
      2 C13         -0.8610     3.8740     0.3560 ca         1 KNS       0.134000
      3 C11         -1.7390     1.7350    -0.4340 ca         1 KNS      -0.089300
      4 C14          0.4330     3.4990    -0.0370 ca         1 KNS      -0.133000
      5 C23          6.2800    -0.5150     0.3190 c5         1 KNS       0.139300
      6 C15          0.6510     2.2410    -0.6300 ca         1 KNS      -0.063300
      7 C17          2.0530     1.8210    -1.0500 c3         1 KNS      -0.029100
      8 C21          3.6700    -0.8790    -2.3900 c3         1 KNS       0.157100
      9 C18          2.7390     0.9450     0.0250 c3         1 KNS      -0.061400
     10 C02         -6.4770    -1.6440     0.6670 ca         1 KNS       0.601900
     11 C03         -6.3530    -2.8680     0.0060 ca         1 KNS      -0.233000
     12 C04         -5.0940    -3.2290    -0.4960 ca         1 KNS       0.000700
     13 C05         -4.0380    -2.3240    -0.3000 ca         1 KNS      -0.216000
     14 C06         -4.2780    -1.1150     0.3810 ca         1 KNS       0.397300
     15 C08         -3.1560    -0.1120     0.5980 c3         1 KNS      -0.124700
     16 C09         -2.8950     0.7620    -0.6480 c3         1 KNS      -0.025100
     17 C16         -0.4350     1.3660    -0.8230 ca         1 KNS      -0.101000
     18 C22          5.7840    -1.0580    -1.0680 c5         1 KNS       0.128800
     19 C24          4.9940     0.0860     0.9490 c5         1 KNS      -0.093400
     20 C25          4.1860     0.4890    -0.3120 c5         1 KNS       0.175500
     21 C27          7.9520    -2.2590     0.8140 c3         1 KNS       0.162600
     22 C28          8.2200    -3.3480     1.8650 c3         1 KNS      -0.093100
     23 F12         -3.1880     3.3720     0.5510 f          1 KNS      -0.160000
     24 F13         -1.0560     5.0850     0.9270 f          1 KNS      -0.165000
     25 N01         -5.4960    -0.7760     0.8600 nb         1 KNS      -0.749000
     26 N02         -7.6260    -1.1950     1.1770 nv         1 KNS      -1.054900
     27 N21          4.3180    -0.7850    -1.0660 n3         1 KNS      -0.725600
     28 O26          6.7200    -1.6080     1.1680 os         1 KNS      -0.449000
     29 H1           1.2610     4.1840     0.1230 ha         1 KNS       0.132000
     30 H2           7.0800     0.2290     0.2090 h1         1 KNS       0.032700
     31 H3           2.0030     1.2850    -2.0030 hc         1 KNS       0.054200
     32 H4           2.6730     2.7060    -1.2370 hc         1 KNS       0.054200
     33 H5           3.9270    -1.8290    -2.8770 h1         1 KNS       0.030033
     34 H6           2.5780    -0.8440    -2.2930 h1         1 KNS       0.030033
     35 H7           3.9940    -0.0580    -3.0440 h1         1 KNS       0.030033
     36 H8           2.7600     1.5300     0.9530 hc         1 KNS       0.048200
     37 H9           2.1140     0.0690     0.2360 hc         1 KNS       0.048200
     38 H10         -7.2120    -3.5200    -0.1140 ha         1 KNS       0.118000
     39 H11         -3.0420    -2.5480    -0.6720 ha         1 KNS       0.121000
     40 H12         -5.0200    -4.4130    -2.3090 hc         1 KNS       0.046367
     41 H13         -3.8690    -4.9320    -1.0650 hc         1 KNS       0.046367
     42 H14         -5.5880    -5.3090    -0.8890 hc         1 KNS       0.046367
     43 H15         -3.3830     0.5390     1.4510 hc         1 KNS       0.059200
     44 H16         -2.2340    -0.6450     0.8590 hc         1 KNS       0.059200
     45 H17         -3.8120     1.3060    -0.9060 hc         1 KNS       0.062700
     46 H18         -2.6840     0.1100    -1.5050 hc         1 KNS       0.062700
     47 H19         -0.2630     0.3910    -1.2750 ha         1 KNS       0.123000
     48 H20          6.2880    -0.5170    -1.8810 h1         1 KNS       0.057700
     49 H21          5.9900    -2.1280    -1.2040 h1         1 KNS       0.057700
     50 H22          4.4500    -0.6490     1.5530 hc         1 KNS       0.063200
     51 H23          5.2160     0.9440     1.5920 hc         1 KNS       0.063200
     52 H24          4.6920     1.3150    -0.8340 h1         1 KNS       0.039700
     53 H25          8.7830    -1.5410     0.8110 h1         1 KNS       0.019700
     54 H26          7.8880    -2.7210    -0.1790 h1         1 KNS       0.019700
     55 H27          8.3050    -2.9080     2.8650 hc         1 KNS       0.043367
     56 H28          7.4080    -4.0850     1.8730 hc         1 KNS       0.043367
     57 H29          9.1560    -3.8710     1.6380 hc         1 KNS       0.043367
     58 H30         -8.4850    -1.5830     0.8020 hn         1 KNS       0.469500
     59 H31         -7.6360    -0.2110     1.4150 hn         1 KNS       0.469500
     60 C07         -4.8810    -4.5430    -1.2290 c3         1 KNS      -0.053800
@<TRIPOS>BOND
     1     1     2 ar  
     2     1     3 ar  
     3     1    23 1   
     4     2     4 ar  
     5     2    24 1   
     6     3    16 1   
     7     3    17 ar  
     8     4     6 ar  
     9     4    29 1   
    10     5    18 1   
    11     5    19 1   
    12     5    28 1   
    13     5    30 1   
    14     6     7 1   
    15     6    17 ar  
    16     7     9 1   
    17     7    31 1   
    18     7    32 1   
    19     8    27 1   
    20     8    33 1   
    21     8    34 1   
    22     8    35 1   
    23     9    20 1   
    24     9    36 1   
    25     9    37 1   
    26    10    11 ar  
    27    10    25 ar  
    28    10    26 1   
    29    11    12 ar  
    30    11    38 1   
    31    12    13 ar  
    32    12    60 1   
    33    13    14 ar  
    34    13    39 1   
    35    14    15 1   
    36    14    25 ar  
    37    15    16 1   
    38    15    43 1   
    39    15    44 1   
    40    16    45 1   
    41    16    46 1   
    42    17    47 1   
    43    18    27 1   
    44    18    48 1   
    45    18    49 1   
    46    19    20 1   
    47    19    50 1   
    48    19    51 1   
    49    20    27 1   
    50    20    52 1   
    51    21    22 1   
    52    21    28 1   
    53    21    53 1   
    54    21    54 1   
    55    22    55 1   
    56    22    56 1   
    57    22    57 1   
    58    26    58 1   
    59    26    59 1   
    60    40    60 1   
    61    41    60 1   
    62    42    60 1   
@<TRIPOS>SUBSTRUCTURE
     1 KNS         1 TEMP              0 ****  ****    0 ROOT
