@<TRIPOS>MOLECULE
KNT
   59    63     1     0     0
SMALL
abcg2


@<TRIPOS>ATOM
      1 N1          -3.8880    -2.7350     0.7180 na         1 KNT      -0.190700
      2 N3          -4.9990    -4.4210     1.2140 nc         1 KNT      -0.035000
      3 C4          -6.6100     2.9220    -0.2760 ca         1 KNT      -0.035000
      4 C5          -6.3540     1.5750    -0.0100 ca         1 KNT      -0.212600
      5 C6          -7.4300     0.6500     0.3750 c          1 KNT       0.589900
      6 C7          -6.9870    -0.7090     0.6310 cc         1 KNT      -0.310200
      7 C8          -5.6910    -1.0360     0.5140 cd         1 KNT       0.067300
      8 C10         -5.0460     1.1110    -0.1040 ca         1 KNT       0.121100
      9 C13          1.1060    -0.2290    -1.5460 ca         1 KNT      -0.188000
     10 C15          4.5020    -0.2190    -0.2350 c3         1 KNT       0.164600
     11 C17          6.9790    -0.5790    -0.1380 c3         1 KNT      -0.073400
     12 C20          9.9320    -1.3980     1.1120 ca         1 KNT      -0.107000
     13 C21         11.1080    -0.9380     1.6900 ca         1 KNT      -0.108000
     14 C22         11.8500     0.0580     1.0660 ca         1 KNT      -0.109000
     15 C24         10.2280     0.1230    -0.7120 ca         1 KNT      -0.107000
     16 C26          0.7710     1.5620     0.5350 ca         1 KNT      -0.030500
     17 C9          -5.1700    -2.3690     0.7640 cd         1 KNT       0.438300
     18 N4          -5.8720    -3.4310     1.0760 nc         1 KNT      -0.356000
     19 N2          -3.8060    -4.0180     1.0030 nd         1 KNT      -0.190800
     20 O2          -4.7300    -0.1790     0.1620 os         1 KNT      -0.238200
     21 C3          -5.5780     3.7600    -0.6360 ca         1 KNT      -0.124000
     22 C2          -4.2770     3.2720    -0.7510 ca         1 KNT      -0.054000
     23 C1          -3.9900     1.9440    -0.4860 ca         1 KNT      -0.055000
     24 N           -2.7010     1.4130    -0.6010 ns         1 KNT      -0.160000
     25 C           -1.5950     1.9730    -0.0300 c          1 KNT       0.627700
     26 O           -1.6610     2.9760     0.6570 o          1 KNT      -0.577100
     27 C11         -0.3100     1.2770    -0.2930 ca         1 KNT      -0.206600
     28 C25          2.0050     0.9630     0.3470 ca         1 KNT      -0.188000
     29 C14          2.1820     0.0570    -0.7000 ca         1 KNT       0.181100
     30 C12         -0.1180     0.3730    -1.3430 ca         1 KNT      -0.030500
     31 O3           3.3330    -0.5690    -0.9690 os         1 KNT      -0.344100
     32 C16          5.6720    -0.9890    -0.8070 c3         1 KNT      -0.083400
     33 C18          8.1800    -1.3420    -0.6980 c3         1 KNT      -0.029100
     34 C19          9.4760    -0.8750    -0.0970 ca         1 KNT      -0.082300
     35 C23         11.4050     0.5870    -0.1380 ca         1 KNT      -0.108000
     36 H1          -3.0550    -2.1970     0.5180 hn         1 KNT       0.399000
     37 H2          -7.6230     3.2930    -0.2010 ha         1 KNT       0.144000
     38 H3          -7.7060    -1.4630     0.9220 ha         1 KNT       0.241000
     39 H4           1.2440    -0.9170    -2.3690 ha         1 KNT       0.129500
     40 H5           4.6810     0.8590    -0.3170 h1         1 KNT       0.039700
     41 H6           4.3680    -0.4540     0.8260 h1         1 KNT       0.039700
     42 H7           7.1370     0.4950    -0.2780 hc         1 KNT       0.044700
     43 H8           6.9170    -0.7440     0.9420 hc         1 KNT       0.044700
     44 H10         11.4470    -1.3590     2.6280 ha         1 KNT       0.113000
     45 H11         12.7680     0.4150     1.5130 ha         1 KNT       0.113000
     46 H12          9.8910     0.5410    -1.6540 ha         1 KNT       0.110000
     47 H13          0.6530     2.2640     1.3490 ha         1 KNT       0.124000
     48 H14         -5.7720     4.8020    -0.8490 ha         1 KNT       0.130000
     49 H15         -3.4850     3.9360    -1.0670 ha         1 KNT       0.141000
     50 H16         -2.6170     0.5060    -1.0310 hn         1 KNT       0.158000
     51 H17          2.8110     1.2100     1.0230 ha         1 KNT       0.129500
     52 H18         -0.9100     0.1470    -2.0460 ha         1 KNT       0.124000
     53 H19          5.5100    -2.0630    -0.6780 hc         1 KNT       0.057200
     54 H20          5.7410    -0.8010    -1.8820 hc         1 KNT       0.057200
     55 H21          8.0460    -2.4110    -0.5120 hc         1 KNT       0.048200
     56 H22          8.2110    -1.2140    -1.7840 hc         1 KNT       0.048200
     57 H23         11.9770     1.3600    -0.6350 ha         1 KNT       0.113000
     58 O1          -8.5960     0.9950     0.4710 o          1 KNT      -0.512100
     59 H9           9.3600    -2.1750     1.6050 ha         1 KNT       0.110000
@<TRIPOS>BOND
     1     1    17 1   
     2     1    19 1   
     3     1    36 1   
     4     2    18 1   
     5     2    19 2   
     6     3     4 ar  
     7     3    21 ar  
     8     3    37 1   
     9     4     5 1   
    10     4     8 ar  
    11     5     6 1   
    12     5    58 2   
    13     6     7 2   
    14     6    38 1   
    15     7    17 1   
    16     7    20 1   
    17     8    20 1   
    18     8    23 ar  
    19     9    29 ar  
    20     9    30 ar  
    21     9    39 1   
    22    10    31 1   
    23    10    32 1   
    24    10    40 1   
    25    10    41 1   
    26    11    32 1   
    27    11    33 1   
    28    11    42 1   
    29    11    43 1   
    30    12    13 ar  
    31    12    34 ar  
    32    12    59 1   
    33    13    14 ar  
    34    13    44 1   
    35    14    35 ar  
    36    14    45 1   
    37    15    34 ar  
    38    15    35 ar  
    39    15    46 1   
    40    16    27 ar  
    41    16    28 ar  
    42    16    47 1   
    43    17    18 2   
    44    21    22 ar  
    45    21    48 1   
    46    22    23 ar  
    47    22    49 1   
    48    23    24 1   
    49    24    25 1   
    50    24    50 1   
    51    25    26 2   
    52    25    27 1   
    53    27    30 ar  
    54    28    29 ar  
    55    28    51 1   
    56    29    31 1   
    57    30    52 1   
    58    32    53 1   
    59    32    54 1   
    60    33    34 1   
    61    33    55 1   
    62    33    56 1   
    63    35    57 1   
@<TRIPOS>SUBSTRUCTURE
     1 KNT         1 TEMP              0 ****  ****    0 ROOT
