@<TRIPOS>MOLECULE
KNT
   59    63     1     0     0
SMALL
No Charge or Current Charge


@<TRIPOS>ATOM
      1 N1          -3.8050    -2.9320     0.1730 na         1 KNT      -0.190700
      2 N3          -4.9120    -4.7340     0.2630 nc         1 KNT      -0.035000
      3 C4          -6.9040     2.7940    -0.2250 ca         1 KNT      -0.035000
      4 C5          -6.5120     1.4420    -0.1500 ca         1 KNT      -0.212600
      5 C6          -7.5330     0.3480    -0.1110 c          1 KNT       0.589900
      6 C7          -6.9880    -1.0030    -0.0230 cc         1 KNT      -0.310200
      7 C8          -5.6300    -1.2550     0.0180 cd         1 KNT       0.067300
      8 C10         -5.1430     1.1150    -0.1110 ca         1 KNT       0.121100
      9 C13          0.9260    -0.3530    -0.5740 ca         1 KNT      -0.188000
     10 C15          4.5890     0.1070    -0.0880 c3         1 KNT       0.164600
     11 C17          7.0850    -0.5140    -0.0660 c3         1 KNT      -0.073400
     12 C20         10.1080    -1.2630     1.2480 ca         1 KNT      -0.107000
     13 C21         11.4090    -0.8050     1.5190 ca         1 KNT      -0.108000
     14 C22         12.1650    -0.1920     0.5060 ca         1 KNT      -0.109000
     15 C24         10.3180    -0.4950    -1.0510 ca         1 KNT      -0.107000
     16 C26          0.9010     2.3070     0.3060 ca         1 KNT      -0.030500
     17 C9          -5.1320    -2.6100     0.1180 cd         1 KNT       0.438300
     18 N4          -5.8410    -3.7210     0.1740 nc         1 KNT      -0.356000
     19 N2          -3.6840    -4.2830     0.2650 nd         1 KNT      -0.190800
     20 O2          -4.7460    -0.2050    -0.0350 os         1 KNT      -0.238200
     21 C3          -5.9320     3.8040    -0.2650 ca         1 KNT      -0.124000
     22 C2          -4.5660     3.4780    -0.2270 ca         1 KNT      -0.054000
     23 C1          -4.1580     2.1280    -0.1430 ca         1 KNT      -0.055000
     24 N           -2.7870     1.7400    -0.1170 ns         1 KNT      -0.160000
     25 C           -1.6200     2.4530     0.1290 c          1 KNT       0.627700
     26 O           -1.6170     3.6360     0.4510 o          1 KNT      -0.577100
     27 C11         -0.3240     1.6760    -0.0110 ca         1 KNT      -0.206600
     28 C25          2.1190     1.6160     0.1880 ca         1 KNT      -0.188000
     29 C14          2.1350     0.2780    -0.2540 ca         1 KNT       0.181100
     30 C12         -0.2960     0.3320    -0.4580 ca         1 KNT      -0.030500
     31 O3           3.2990    -0.4490    -0.3900 os         1 KNT      -0.344100
     32 C16          5.6420    -0.9850    -0.3550 c3         1 KNT      -0.083400
     33 C18          8.1450    -1.6040    -0.3320 c3         1 KNT      -0.029100
     34 C19          9.5560    -1.1120    -0.0400 ca         1 KNT      -0.082300
     35 C23         11.6190    -0.0370    -0.7800 ca         1 KNT      -0.108000
     36 H1          -3.0160    -2.3000     0.1570 hn         1 KNT       0.399000
     37 H2          -7.9580     3.0650    -0.2570 ha         1 KNT       0.144000
     38 H3          -7.7300    -1.7930     0.0110 ha         1 KNT       0.241000
     39 H4           0.9360    -1.3840    -0.9190 ha         1 KNT       0.129500
     40 H5           4.7950     0.9780    -0.7240 h1         1 KNT       0.039700
     41 H6           4.6410     0.4170     0.9640 h1         1 KNT       0.039700
     42 H7           7.3100     0.3630    -0.6870 hc         1 KNT       0.044700
     43 H8           7.1570    -0.1920     0.9800 hc         1 KNT       0.044700
     44 H10         11.8310    -0.9250     2.5150 ha         1 KNT       0.113000
     45 H11         13.1720     0.1620     0.7160 ha         1 KNT       0.113000
     46 H12          9.9010    -0.3690    -2.0480 ha         1 KNT       0.110000
     47 H13          0.9150     3.3400     0.6500 ha         1 KNT       0.124000
     48 H14         -6.2370     4.8470    -0.3310 ha         1 KNT       0.130000
     49 H15         -3.8430     4.2860    -0.2810 ha         1 KNT       0.141000
     50 H16         -2.6420     0.7600    -0.3190 hn         1 KNT       0.158000
     51 H17          3.0380     2.1360     0.4430 ha         1 KNT       0.129500
     52 H18         -1.2070    -0.1970    -0.7270 ha         1 KNT       0.124000
     53 H19          5.4150    -1.8600     0.2680 hc         1 KNT       0.057200
     54 H20          5.5670    -1.3050    -1.4020 hc         1 KNT       0.057200
     55 H21          7.9180    -2.4850     0.2820 hc         1 KNT       0.048200
     56 H22          8.0700    -1.9330    -1.3770 hc         1 KNT       0.048200
     57 H23         12.2020     0.4390    -1.5650 ha         1 KNT       0.113000
     58 O1          -8.7360     0.5680    -0.1480 o          1 KNT      -0.512100
     59 H9           9.5290    -1.7350     2.0380 ha         1 KNT       0.110000
@<TRIPOS>BOND
     1     1    17 1   
     2     1    19 1   
     3     1    36 1   
     4     2    18 1   
     5     2    19 2   
     6     3     4 ar  
     7     3    21 ar  
     8     3    37 1   
     9     4     5 1   
    10     4     8 ar  
    11     5     6 1   
    12     5    58 2   
    13     6     7 2   
    14     6    38 1   
    15     7    17 1   
    16     7    20 1   
    17     8    20 1   
    18     8    23 ar  
    19     9    29 ar  
    20     9    30 ar  
    21     9    39 1   
    22    10    31 1   
    23    10    32 1   
    24    10    40 1   
    25    10    41 1   
    26    11    32 1   
    27    11    33 1   
    28    11    42 1   
    29    11    43 1   
    30    12    13 ar  
    31    12    34 ar  
    32    12    59 1   
    33    13    14 ar  
    34    13    44 1   
    35    14    35 ar  
    36    14    45 1   
    37    15    34 ar  
    38    15    35 ar  
    39    15    46 1   
    40    16    27 ar  
    41    16    28 ar  
    42    16    47 1   
    43    17    18 2   
    44    21    22 ar  
    45    21    48 1   
    46    22    23 ar  
    47    22    49 1   
    48    23    24 1   
    49    24    25 1   
    50    24    50 1   
    51    25    26 2   
    52    25    27 1   
    53    27    30 ar  
    54    28    29 ar  
    55    28    51 1   
    56    29    31 1   
    57    30    52 1   
    58    32    53 1   
    59    32    54 1   
    60    33    34 1   
    61    33    55 1   
    62    33    56 1   
    63    35    57 1   
@<TRIPOS>SUBSTRUCTURE
     1 KNT         1 TEMP              0 ****  ****    0 ROOT
