@<TRIPOS>MOLECULE
KNU
   25    25     1     0     0
SMALL
No Charge or Current Charge


@<TRIPOS>ATOM
      1 C4          13.0320    -1.6170    22.6710 ca         1 KNU       0.148000
      2 C5          13.2380    -0.2640    22.9780 ca         1 KNU      -0.141000
      3 C6          12.1340     0.5810    23.1520 ca         1 KNU       0.178000
      4 C7          10.8270     0.0820    23.0230 ca         1 KNU      -0.137000
      5 O            6.6570    -2.0470    21.2240 o          1 KNU      -0.601100
      6 C9           7.6890    -2.7290    19.1540 c3         1 KNU      -0.175100
      7 N            8.9320    -2.1980    21.1870 ns         1 KNU      -0.514900
      8 C1           9.1880    -1.8140    22.5740 c3         1 KNU       0.162000
      9 C            8.9020    -2.9830    23.5400 c3         1 KNU      -0.104100
     10 C2          10.6110    -1.2780    22.7190 ca         1 KNU      -0.055300
     11 F           12.3270     1.8850    23.4450 f          1 KNU      -0.178000
     12 Cl          14.4130    -2.6830    22.4460 cl         1 KNU      -0.205000
     13 C3          11.7280    -2.1230    22.5400 ca         1 KNU      -0.109000
     14 H1          14.2460     0.1280    23.0780 ha         1 KNU       0.149000
     15 H2           9.9860     0.7570    23.1600 ha         1 KNU       0.137000
     16 H3           8.3270    -2.0480    18.5800 hc         1 KNU       0.061367
     17 H4           8.2250    -3.6810    19.0660 hc         1 KNU       0.061367
     18 H5           6.6800    -2.7920    18.7300 hc         1 KNU       0.061367
     19 H6           9.7250    -2.4110    20.5940 hn         1 KNU       0.313500
     20 H7           8.4930    -1.0020    22.8290 h1         1 KNU       0.079700
     21 H8           9.1170    -2.6860    24.5730 hc         1 KNU       0.047700
     22 H9           7.8480    -3.2810    23.4860 hc         1 KNU       0.047700
     23 H10          9.5150    -3.8580    23.2980 hc         1 KNU       0.047700
     24 H11         11.5900    -3.1730    22.2970 ha         1 KNU       0.130000
     25 C8           7.6860    -2.2950    20.6130 c          1 KNU       0.593100
@<TRIPOS>BOND
     1     1     2 ar  
     2     1    12 1   
     3     1    13 ar  
     4     2     3 ar  
     5     2    14 1   
     6     3     4 ar  
     7     3    11 1   
     8     4    10 ar  
     9     4    15 1   
    10     5    25 2   
    11     6    16 1   
    12     6    17 1   
    13     6    18 1   
    14     6    25 1   
    15     7     8 1   
    16     7    19 1   
    17     7    25 1   
    18     8     9 1   
    19     8    10 1   
    20     8    20 1   
    21     9    21 1   
    22     9    22 1   
    23     9    23 1   
    24    10    13 ar  
    25    13    24 1   
@<TRIPOS>SUBSTRUCTURE
     1 KNU         1 TEMP              0 ****  ****    0 ROOT
