@<TRIPOS>MOLECULE
KNU
   25    25     1     0     0
SMALL
abcg2


@<TRIPOS>ATOM
      1 C4          12.7210    -1.2780    22.0370 ca         1 KNU       0.148000
      2 C5          12.9670    -0.1370    22.7870 ca         1 KNU      -0.141000
      3 C6          11.8970     0.3890    23.4880 ca         1 KNU       0.178000
      4 C7          10.6320    -0.1650    23.4650 ca         1 KNU      -0.137000
      5 O            8.4020    -0.7350    20.2840 o          1 KNU      -0.601100
      6 C9           8.1700    -2.8150    19.1110 c3         1 KNU      -0.175100
      7 N            8.7280    -2.6320    21.4660 ns         1 KNU      -0.514900
      8 C1           9.0420    -1.9620    22.7180 c3         1 KNU       0.162000
      9 C            8.9260    -2.9670    23.8640 c3         1 KNU      -0.104100
     10 C2          10.4160    -1.3120    22.7040 ca         1 KNU      -0.055300
     11 F           12.1060     1.5070    24.2250 f          1 KNU      -0.178000
     12 CL          14.0370    -1.9870    21.1270 cl         1 KNU      -0.205000
     13 C3          11.4690    -1.8720    21.9860 ca         1 KNU      -0.109000
     14 H1          13.9410     0.3300    22.8230 ha         1 KNU       0.149000
     15 H2           9.8300     0.2960    24.0270 ha         1 KNU       0.137000
     16 H3           8.9290    -2.5910    18.3590 hc         1 KNU       0.061367
     17 H4           8.1860    -3.8830    19.3240 hc         1 KNU       0.061367
     18 H5           7.1990    -2.5430    18.6970 hc         1 KNU       0.061367
     19 H6           8.7640    -3.6390    21.4410 hn         1 KNU       0.313500
     20 H7           8.3060    -1.1700    22.8630 h1         1 KNU       0.079700
     21 H8           9.1400    -2.4770    24.8130 hc         1 KNU       0.047700
     22 H9           7.9180    -3.3820    23.9040 hc         1 KNU       0.047700
     23 H10          9.6400    -3.7830    23.7300 hc         1 KNU       0.047700
     24 H11         11.3130    -2.7560    21.3850 ha         1 KNU       0.130000
     25 C8           8.4390    -1.9660    20.3290 c          1 KNU       0.593100
@<TRIPOS>BOND
     1     1     2 ar  
     2     1    12 1   
     3     1    13 ar  
     4     2     3 ar  
     5     2    14 1   
     6     3     4 ar  
     7     3    11 1   
     8     4    10 ar  
     9     4    15 1   
    10     5    25 2   
    11     6    16 1   
    12     6    17 1   
    13     6    18 1   
    14     6    25 1   
    15     7     8 1   
    16     7    19 1   
    17     7    25 1   
    18     8     9 1   
    19     8    10 1   
    20     8    20 1   
    21     9    21 1   
    22     9    22 1   
    23     9    23 1   
    24    10    13 ar  
    25    13    24 1   
@<TRIPOS>SUBSTRUCTURE
     1 KNU         1 TEMP              0 ****  ****    0 ROOT
