@<TRIPOS>MOLECULE
KNV
   50    52     1     0     0
SMALL
abcg2


@<TRIPOS>ATOM
      1 C11         -0.2040     0.8520    -0.2650 ca         1 KNV      -0.089300
      2 C12         -0.0260     2.2260    -0.2450 ca         1 KNV       0.129000
      3 C13          1.2040     2.7810     0.0570 ca         1 KNV       0.134000
      4 C15          2.1440     0.5990     0.3450 ca         1 KNV      -0.064300
      5 C16          0.9000     0.0590     0.0360 ca         1 KNV      -0.104000
      6 C21          6.5800    -1.3310     1.5720 c3         1 KNV       0.149100
      7 C22          5.1440    -1.7230    -0.4430 cy         1 KNV       0.154500
      8 C23          5.9870    -2.1360    -1.6610 cy         1 KNV      -0.104400
      9 C24          7.2020    -1.9160    -0.7520 cy         1 KNV       0.142800
     10 C17          3.3220    -0.2930     0.6190 c3         1 KNV      -0.029100
     11 C18          3.9800    -0.7830    -0.6720 c3         1 KNV      -0.060400
     12 C02         -5.7610    -0.1500    -0.7360 ca         1 KNV       0.600900
     13 C03         -6.2390    -1.3740    -0.2330 ca         1 KNV      -0.232000
     14 C04         -5.4380    -2.1110     0.6140 ca         1 KNV       0.001700
     15 C05         -4.1740    -1.6010     0.9350 ca         1 KNV      -0.217000
     16 C06         -3.7850    -0.3870     0.3990 ca         1 KNV       0.396300
     17 C08         -2.4350     0.2000     0.6990 c3         1 KNV      -0.122700
     18 C09         -1.5470     0.2470    -0.5530 c3         1 KNV      -0.025100
     19 C14          2.2900     1.9840     0.3510 ca         1 KNV      -0.128000
     20 F12         -1.0550     3.0440    -0.5150 f          1 KNV      -0.160000
     21 F13          1.3260     4.1140     0.0620 f          1 KNV      -0.164000
     22 N01         -4.5620     0.3260    -0.4190 nb         1 KNV      -0.750000
     23 N02         -6.5090     0.5810    -1.6130 nv         1 KNV      -1.053900
     24 N21          6.3550    -1.1460     0.1620 nq         1 KNV      -0.709600
     25 H1           0.7770    -1.0190     0.0290 ha         1 KNV       0.118000
     26 H2           7.5770    -0.9720     1.8370 h1         1 KNV       0.031033
     27 H3           5.8620    -0.7570     2.1590 h1         1 KNV       0.031033
     28 H4           6.5090    -2.3830     1.8880 h1         1 KNV       0.031033
     29 H5           4.8010    -2.6130     0.1100 h1         1 KNV       0.035700
     30 H6           5.8330    -3.1390    -2.0550 hc         1 KNV       0.058700
     31 H7           5.9240    -1.4150    -2.4770 hc         1 KNV       0.058700
     32 H8           7.5600    -2.8590    -0.3170 h1         1 KNV       0.046200
     33 H9           8.0600    -1.3750    -1.1590 h1         1 KNV       0.046200
     34 H10          4.0540     0.2510     1.2200 hc         1 KNV       0.051700
     35 H11          3.0000    -1.1540     1.2120 hc         1 KNV       0.051700
     36 H12          4.3230     0.0760    -1.2570 hc         1 KNV       0.050700
     37 H13          3.2350    -1.3030    -1.2840 hc         1 KNV       0.050700
     38 H14         -7.2270    -1.7240    -0.5090 ha         1 KNV       0.118000
     39 H15         -3.5130    -2.1430     1.5990 ha         1 KNV       0.120000
     40 H16         -5.3460    -4.2480     0.6970 hc         1 KNV       0.046367
     41 H17         -5.7020    -3.4910     2.2380 hc         1 KNV       0.046367
     42 H18         -6.9540    -3.5920     0.9960 hc         1 KNV       0.046367
     43 H19         -2.5630     1.2120     1.0910 hc         1 KNV       0.057200
     44 H20         -1.9380    -0.3840     1.4750 hc         1 KNV       0.057200
     45 H21         -2.0650     0.8020    -1.3370 hc         1 KNV       0.064200
     46 H22         -1.4030    -0.7680    -0.9290 hc         1 KNV       0.064200
     47 H23          3.2400     2.4450     0.5890 ha         1 KNV       0.136000
     48 H24         -7.5020     0.4160    -1.6270 hn         1 KNV       0.469000
     49 H25         -6.2520     1.5490    -1.7140 hn         1 KNV       0.469000
     50 C07         -5.8910    -3.4270     1.1660 c3         1 KNV      -0.053800
@<TRIPOS>BOND
     1     1     2 ar  
     2     1     5 ar  
     3     1    18 1   
     4     2     3 ar  
     5     2    20 1   
     6     3    19 ar  
     7     3    21 1   
     8     4     5 ar  
     9     4    10 1   
    10     4    19 ar  
    11     5    25 1   
    12     6    24 1   
    13     6    26 1   
    14     6    27 1   
    15     6    28 1   
    16     7     8 1   
    17     7    11 1   
    18     7    24 1   
    19     7    29 1   
    20     8     9 1   
    21     8    30 1   
    22     8    31 1   
    23     9    24 1   
    24     9    32 1   
    25     9    33 1   
    26    10    11 1   
    27    10    34 1   
    28    10    35 1   
    29    11    36 1   
    30    11    37 1   
    31    12    13 ar  
    32    12    22 ar  
    33    12    23 1   
    34    13    14 ar  
    35    13    38 1   
    36    14    15 ar  
    37    14    50 1   
    38    15    16 ar  
    39    15    39 1   
    40    16    17 1   
    41    16    22 ar  
    42    17    18 1   
    43    17    43 1   
    44    17    44 1   
    45    18    45 1   
    46    18    46 1   
    47    19    47 1   
    48    23    48 1   
    49    23    49 1   
    50    40    50 1   
    51    41    50 1   
    52    42    50 1   
@<TRIPOS>SUBSTRUCTURE
     1 KNV         1 TEMP              0 ****  ****    0 ROOT
