@<TRIPOS>MOLECULE
KNV
   50    52     1     0     0
SMALL
No Charge or Current Charge


@<TRIPOS>ATOM
      1 C11         -0.2410     0.8840    -0.4470 ca         1 KNV      -0.089300
      2 C12         -0.0130     2.2650    -0.6270 ca         1 KNV       0.129000
      3 C13          1.2690     2.8050    -0.4080 ca         1 KNV       0.134000
      4 C15          2.1120     0.5980     0.1810 ca         1 KNV      -0.064300
      5 C16          0.8290     0.0590    -0.0410 ca         1 KNV      -0.104000
      6 C21          6.7300    -0.6950     1.5230 c3         1 KNV       0.149100
      7 C22          5.1800    -1.8260    -0.2180 cy         1 KNV       0.154500
      8 C23          6.0230    -2.4920    -1.3570 cy         1 KNV      -0.104400
      9 C24          7.1640    -2.4820    -0.2890 cy         1 KNV       0.142800
     10 C17          3.2590    -0.3050     0.6120 c3         1 KNV      -0.029100
     11 C18          4.0490    -0.8510    -0.5970 c3         1 KNV      -0.060400
     12 C02         -6.0870     0.0020    -0.1050 ca         1 KNV       0.600900
     13 C03         -6.3600    -1.3640    -0.0150 ca         1 KNV      -0.232000
     14 C04         -5.3050    -2.2360     0.2930 ca         1 KNV       0.001700
     15 C05         -4.0360    -1.6670     0.4910 ca         1 KNV      -0.217000
     16 C06         -3.8760    -0.2730     0.3800 ca         1 KNV       0.396300
     17 C08         -2.5120     0.3690     0.5840 c3         1 KNV      -0.122700
     18 C09         -1.6210     0.2730    -0.6740 c3         1 KNV      -0.025100
     19 C14          2.3280     1.9760    -0.0070 ca         1 KNV      -0.128000
     20 F12         -1.0260     3.0790    -1.0100 f          1 KNV      -0.160000
     21 F13          1.4910     4.1280    -0.5820 f          1 KNV      -0.164000
     22 N01         -4.8990     0.5580     0.0830 nb         1 KNV      -0.750000
     23 N02         -7.0120     0.9220    -0.3840 nv         1 KNV      -1.053900
     24 N21          6.4950    -1.2350     0.1810 nq         1 KNV      -0.709600
     25 H1           0.6630    -1.0060     0.1030 ha         1 KNV       0.118000
     26 H2           7.7930    -0.4470     1.6390 h1         1 KNV       0.031033
     27 H3           6.1390     0.2170     1.6710 h1         1 KNV       0.031033
     28 H4           6.4490    -1.4370     2.2820 h1         1 KNV       0.031033
     29 H5           4.7950    -2.5710     0.4910 h1         1 KNV       0.035700
     30 H6           5.6850    -3.4780    -1.6910 hc         1 KNV       0.058700
     31 H7           6.2050    -1.8580    -2.2330 hc         1 KNV       0.058700
     32 H8           7.1260    -3.3260     0.4120 h1         1 KNV       0.046200
     33 H9           8.1770    -2.3660    -0.6920 h1         1 KNV       0.046200
     34 H10          3.9350     0.2470     1.2750 hc         1 KNV       0.051700
     35 H11          2.8750    -1.1470     1.2010 hc         1 KNV       0.051700
     36 H12          4.4580    -0.0110    -1.1720 hc         1 KNV       0.050700
     37 H13          3.3470    -1.3680    -1.2620 hc         1 KNV       0.050700
     38 H14         -7.3640    -1.7390    -0.1850 ha         1 KNV       0.118000
     39 H15         -3.1810    -2.2940     0.7280 ha         1 KNV       0.120000
     40 H16         -5.3400    -4.2260    -0.5620 hc         1 KNV       0.046367
     41 H17         -4.8490    -4.1840     1.1400 hc         1 KNV       0.046367
     42 H18         -6.5500    -3.9690     0.7060 hc         1 KNV       0.046367
     43 H19         -2.6230     1.4230     0.8660 hc         1 KNV       0.057200
     44 H20         -2.0000    -0.1180     1.4220 hc         1 KNV       0.057200
     45 H21         -2.1260     0.7690    -1.5120 hc         1 KNV       0.064200
     46 H22         -1.5230    -0.7800    -0.9650 hc         1 KNV       0.064200
     47 H23          3.3130     2.4050     0.1560 ha         1 KNV       0.136000
     48 H24         -7.9800     0.6770    -0.2090 hn         1 KNV       0.469000
     49 H25         -6.7420     1.8780    -0.1910 hn         1 KNV       0.469000
     50 C07         -5.5230    -3.7360     0.4010 c3         1 KNV      -0.053800
@<TRIPOS>BOND
     1     1     2 ar  
     2     1     5 ar  
     3     1    18 1   
     4     2     3 ar  
     5     2    20 1   
     6     3    19 ar  
     7     3    21 1   
     8     4     5 ar  
     9     4    10 1   
    10     4    19 ar  
    11     5    25 1   
    12     6    24 1   
    13     6    26 1   
    14     6    27 1   
    15     6    28 1   
    16     7     8 1   
    17     7    11 1   
    18     7    24 1   
    19     7    29 1   
    20     8     9 1   
    21     8    30 1   
    22     8    31 1   
    23     9    24 1   
    24     9    32 1   
    25     9    33 1   
    26    10    11 1   
    27    10    34 1   
    28    10    35 1   
    29    11    36 1   
    30    11    37 1   
    31    12    13 ar  
    32    12    22 ar  
    33    12    23 1   
    34    13    14 ar  
    35    13    38 1   
    36    14    15 ar  
    37    14    50 1   
    38    15    16 ar  
    39    15    39 1   
    40    16    17 1   
    41    16    22 ar  
    42    17    18 1   
    43    17    43 1   
    44    17    44 1   
    45    18    45 1   
    46    18    46 1   
    47    19    47 1   
    48    23    48 1   
    49    23    49 1   
    50    40    50 1   
    51    41    50 1   
    52    42    50 1   
@<TRIPOS>SUBSTRUCTURE
     1 KNV         1 TEMP              0 ****  ****    0 ROOT
