@<TRIPOS>MOLECULE
KNW
   69    72     1     0     0
SMALL
No Charge or Current Charge


@<TRIPOS>ATOM
      1 C4           7.8640     0.4530    -0.3400 c3         1 KNW       0.211800
      2 C14          0.1380    -3.4580     0.0830 ca         1 KNW      -0.183600
      3 C5           8.3470     1.9130    -0.5310 c3         1 KNW      -0.069400
      4 C6           9.8720     2.0180    -0.7900 c3         1 KNW      -0.204400
      5 C11          4.7780    -3.7120     0.0960 ca         1 KNW      -0.166000
      6 C7          10.2800     3.4910    -0.9660 c          1 KNW       0.716000
      7 C8           5.8670    -1.0940    -0.0030 ca         1 KNW       0.281000
      8 C9           6.7070    -2.2280     0.0430 ca         1 KNW      -0.184000
      9 C10          6.1670    -3.5220     0.0950 ca         1 KNW      -0.114000
     10 C12          3.9080    -2.6020     0.0570 ca         1 KNW      -0.047000
     11 C13          1.6190    -3.7980     0.1030 c          1 KNW       0.619700
     12 N1           6.4090     0.2270    -0.1030 nh         1 KNW      -0.796400
     13 C3           5.4530     1.3710    -0.2630 c6         1 KNW       0.180800
     14 C1           4.0900     1.0750     0.4040 c6         1 KNW       0.016300
     15 C15         -0.8120    -4.5030     0.1320 ca         1 KNW      -0.031500
     16 C16         -2.1890    -4.2230     0.1150 ca         1 KNW      -0.191500
     17 C17         -2.6470    -2.9010     0.0500 ca         1 KNW       0.145100
     18 C18         -4.5800    -1.3720    -0.0280 c3         1 KNW       0.164600
     19 C19         -6.1130    -1.5250    -0.0240 c3         1 KNW      -0.080400
     20 C2           3.1020     2.2550     0.1420 c          1 KNW       0.734000
     21 C20         -6.8540    -0.1710    -0.0900 c3         1 KNW      -0.074400
     22 C21         -8.3920    -0.3200    -0.0850 c3         1 KNW      -0.034100
     23 C22         -9.1030     1.0300    -0.1480 ca         1 KNW      -0.034300
     24 C23         -9.5240     1.5260    -1.4000 ca         1 KNW      -0.146000
     25 C24        -10.1760     2.7660    -1.4910 ca         1 KNW       0.174000
     26 C25        -10.4160     3.5280    -0.3390 ca         1 KNW      -0.151000
     27 C26         -9.9990     3.0460     0.9140 ca         1 KNW      -0.078000
     28 C27         -9.3450     1.8040     1.0140 ca         1 KNW       0.103000
     29 C28         -1.7120    -1.8480     0.0000 ca         1 KNW      -0.191500
     30 C29         -0.3320    -2.1210     0.0170 ca         1 KNW      -0.031500
     31 C30          4.4550    -1.3010     0.0210 ca         1 KNW       0.037100
     32 F1         -10.5730     3.2280    -2.6960 f          1 KNW      -0.177000
     33 O1           2.2070     2.0590    -0.6730 o          1 KNW      -0.716500
     34 O2           2.8920     2.9880     1.1010 o          1 KNW      -0.716500
     35 O3          10.2340     3.9720    -2.0880 o          1 KNW      -0.745500
     36 O4          10.5840     4.1290     0.0310 o          1 KNW      -0.745500
     37 O5           1.9950    -4.9650     0.1550 o          1 KNW      -0.634100
     38 O6          -4.0100    -2.6900     0.0370 os         1 KNW      -0.361100
     39 O7           3.5810    -0.2270    -0.0020 os         1 KNW      -0.339100
     40 Cl1         -8.8380     1.2520     2.6120 cl         1 KNW      -0.199000
     41 H1           8.1590    -0.1110    -1.2360 h1         1 KNW       0.017700
     42 H2           8.4220     0.0340     0.5080 h1         1 KNW       0.017700
     43 H3           7.8130     2.3660    -1.3760 hc         1 KNW       0.056200
     44 H4           8.1010     2.4940     0.3650 hc         1 KNW       0.056200
     45 H5          10.3560     1.5870     0.0950 hc         1 KNW       0.011200
     46 H6          10.0580     1.4530    -1.7130 hc         1 KNW       0.011200
     47 H7           4.4000    -4.7290     0.1300 ha         1 KNW       0.124000
     48 H8           7.7870    -2.1240     0.0340 ha         1 KNW       0.108000
     49 H9           6.8300    -4.3840     0.1280 ha         1 KNW       0.087000
     50 H10          2.0250    -1.8170     0.0210 hn         1 KNW       0.190000
     51 H11          5.8470     2.2870     0.2000 h1         1 KNW       0.067700
     52 H12          5.2920     1.5840    -1.3310 h1         1 KNW       0.067700
     53 H13          4.2560     1.0330     1.4900 h1         1 KNW       0.040700
     54 H14         -0.4880    -5.5420     0.1840 ha         1 KNW       0.144000
     55 H15         -2.9060    -5.0390     0.1540 ha         1 KNW       0.119500
     56 H16         -4.2660    -0.8570    -0.9460 h1         1 KNW       0.042700
     57 H17         -4.2690    -0.7710     0.8370 h1         1 KNW       0.042700
     58 H18         -6.4130    -2.1450    -0.8790 hc         1 KNW       0.049700
     59 H19         -6.4160    -2.0590     0.8850 hc         1 KNW       0.049700
     60 H20         -6.5480     0.4490     0.7610 hc         1 KNW       0.052200
     61 H21         -6.5500     0.3640    -0.9990 hc         1 KNW       0.052200
     62 H22         -8.6900    -0.9400    -0.9400 hc         1 KNW       0.054200
     63 H23         -8.7030    -0.8800     0.8050 hc         1 KNW       0.054200
     64 H24         -9.3450     0.9530    -2.3060 ha         1 KNW       0.136000
     65 H25        -10.9210     4.4870    -0.4170 ha         1 KNW       0.133000
     66 H26        -10.1810     3.6340     1.8110 ha         1 KNW       0.130000
     67 H27         -2.0340    -0.8120    -0.0510 ha         1 KNW       0.119500
     68 H28          0.3530    -1.2770    -0.0240 ha         1 KNW       0.144000
     69 N2           2.4870    -2.7140     0.0590 ns         1 KNW      -0.120000
@<TRIPOS>BOND
     1     1     3 1   
     2     1    12 1   
     3     1    41 1   
     4     1    42 1   
     5     2    11 1   
     6     2    15 ar  
     7     2    30 ar  
     8     3     4 1   
     9     3    43 1   
    10     3    44 1   
    11     4     6 1   
    12     4    45 1   
    13     4    46 1   
    14     5     9 ar  
    15     5    10 ar  
    16     5    47 1   
    17     6    35 1   
    18     6    36 1   
    19     7     8 ar  
    20     7    12 1   
    21     7    31 ar  
    22     8     9 ar  
    23     8    48 1   
    24     9    49 1   
    25    10    31 ar  
    26    10    69 1   
    27    11    37 2   
    28    11    69 1   
    29    12    13 1   
    30    13    14 1   
    31    13    51 1   
    32    13    52 1   
    33    14    20 1   
    34    14    39 1   
    35    14    53 1   
    36    15    16 ar  
    37    15    54 1   
    38    16    17 ar  
    39    16    55 1   
    40    17    29 ar  
    41    17    38 1   
    42    18    19 1   
    43    18    38 1   
    44    18    56 1   
    45    18    57 1   
    46    19    21 1   
    47    19    58 1   
    48    19    59 1   
    49    20    33 1   
    50    20    34 1   
    51    21    22 1   
    52    21    60 1   
    53    21    61 1   
    54    22    23 1   
    55    22    62 1   
    56    22    63 1   
    57    23    24 ar  
    58    23    28 ar  
    59    24    25 ar  
    60    24    64 1   
    61    25    26 ar  
    62    25    32 1   
    63    26    27 ar  
    64    26    65 1   
    65    27    28 ar  
    66    27    66 1   
    67    28    40 1   
    68    29    30 ar  
    69    29    67 1   
    70    30    68 1   
    71    31    39 1   
    72    50    69 1   
@<TRIPOS>SUBSTRUCTURE
     1 KNW         1 TEMP              0 ****  ****    0 ROOT
