@<TRIPOS>MOLECULE
KNW
   69    72     1     0     0
SMALL
abcg2


@<TRIPOS>ATOM
      1 C4           7.5910     0.4740    -0.4260 c3         1 KNW       0.211800
      2 C14          0.1760    -3.3580     0.2820 ca         1 KNW      -0.183600
      3 C5           8.0120     1.9350    -0.4480 c3         1 KNW      -0.069400
      4 C6           9.5220     2.0600    -0.5740 c3         1 KNW      -0.204400
      5 C11          4.7230    -3.6770     0.3120 ca         1 KNW      -0.166000
      6 C7          10.0610     3.4990    -0.6780 c          1 KNW       0.716000
      7 C8           5.7450    -1.0460     0.0170 ca         1 KNW       0.281000
      8 C9           6.5990    -2.1450     0.1770 ca         1 KNW      -0.184000
      9 C10          6.0860    -3.4240     0.3320 ca         1 KNW      -0.114000
     10 C12          3.8540    -2.6000     0.1470 ca         1 KNW      -0.047000
     11 C13          1.6260    -3.6840     0.4060 c          1 KNW       0.619700
     12 N1           6.1850     0.2580    -0.1250 nh         1 KNW      -0.796400
     13 C3           5.2130     1.2010    -0.6420 c6         1 KNW       0.180800
     14 C1           3.8880     0.9930     0.0610 c6         1 KNW       0.016300
     15 C15         -0.7340    -4.4150     0.1950 ca         1 KNW      -0.031500
     16 C16         -2.0870    -4.1840     0.0720 ca         1 KNW      -0.191500
     17 C17         -2.5800    -2.8750     0.0510 ca         1 KNW       0.145100
     18 C18         -4.4710    -1.4340    -0.0510 c3         1 KNW       0.164600
     19 C19         -5.9710    -1.5600    -0.2110 c3         1 KNW      -0.080400
     20 C2           2.7800     1.9620    -0.3990 c          1 KNW       0.734000
     21 C20         -6.6470    -0.1970    -0.1210 c3         1 KNW      -0.074400
     22 C21         -8.1570    -0.2990    -0.3420 c3         1 KNW      -0.034100
     23 C22         -8.8410     1.0320    -0.2230 ca         1 KNW      -0.034300
     24 C23         -9.1260     1.7660    -1.3720 ca         1 KNW      -0.146000
     25 C24         -9.7270     3.0050    -1.2760 ca         1 KNW       0.174000
     26 C25        -10.0670     3.5650    -0.0610 ca         1 KNW      -0.151000
     27 C26         -9.7860     2.8470     1.0910 ca         1 KNW      -0.078000
     28 C27         -9.1810     1.6020     1.0030 ca         1 KNW       0.103000
     29 C28         -1.6870    -1.8100     0.1590 ca         1 KNW      -0.191500
     30 C29         -0.3270    -2.0590     0.2700 ca         1 KNW      -0.031500
     31 C30          4.3670    -1.3080     0.0080 ca         1 KNW       0.037100
     32 F1          -9.9900     3.6840    -2.4020 f          1 KNW      -0.177000
     33 O1           1.6560     1.4810    -0.6070 o          1 KNW      -0.716500
     34 O2           3.1320     3.1540    -0.4770 o          1 KNW      -0.716500
     35 O3           9.2350     4.4320    -0.6890 o          1 KNW      -0.745500
     36 O4          11.3030     3.6100    -0.7450 o          1 KNW      -0.745500
     37 O5           2.0040    -4.7870     0.7740 o          1 KNW      -0.634100
     38 O6          -3.9070    -2.7390    -0.0730 os         1 KNW      -0.361100
     39 O7           3.4450    -0.3330    -0.1570 os         1 KNW      -0.339100
     40 CL1         -8.8570     0.7450     2.4780 cl         1 KNW      -0.199000
     41 H1           7.8630     0.0060    -1.3850 h1         1 KNW       0.017700
     42 H2           8.1840    -0.0300     0.3410 h1         1 KNW       0.017700
     43 H3           7.5410     2.4590    -1.2820 hc         1 KNW       0.056200
     44 H4           7.6710     2.4280     0.4670 hc         1 KNW       0.056200
     45 H5          10.0100     1.5730     0.2770 hc         1 KNW       0.011200
     46 H6           9.8660     1.5040    -1.4540 hc         1 KNW       0.011200
     47 H7           4.3510    -4.6830     0.4170 ha         1 KNW       0.124000
     48 H8           7.6710    -2.0130     0.1770 ha         1 KNW       0.108000
     49 H9           6.7740    -4.2510     0.4540 ha         1 KNW       0.087000
     50 H10          2.0350    -1.8220    -0.2610 hn         1 KNW       0.190000
     51 H11          5.5440     2.2150    -0.4380 h1         1 KNW       0.067700
     52 H12          5.0820     1.1080    -1.7310 h1         1 KNW       0.067700
     53 H13          4.0470     1.1430     1.1390 h1         1 KNW       0.040700
     54 H14         -0.3740    -5.4350     0.2140 ha         1 KNW       0.144000
     55 H15         -2.7780    -5.0130    -0.0090 ha         1 KNW       0.119500
     56 H16         -4.0540    -0.8280    -0.8640 h1         1 KNW       0.042700
     57 H17         -4.2250    -0.9370     0.8940 h1         1 KNW       0.042700
     58 H18         -6.1990    -2.0240    -1.1740 hc         1 KNW       0.049700
     59 H19         -6.3690    -2.2170     0.5670 hc         1 KNW       0.049700
     60 H20         -6.4450     0.2460     0.8580 hc         1 KNW       0.052200
     61 H21         -6.2210     0.4830    -0.8650 hc         1 KNW       0.052200
     62 H22         -8.3460    -0.7030    -1.3390 hc         1 KNW       0.054200
     63 H23         -8.5850    -1.0090     0.3690 hc         1 KNW       0.054200
     64 H24         -8.8780     1.3590    -2.3450 ha         1 KNW       0.136000
     65 H25        -10.5410     4.5350    -0.0060 ha         1 KNW       0.133000
     66 H26        -10.0400     3.2620     2.0560 ha         1 KNW       0.130000
     67 H27         -2.0280    -0.7850     0.1630 ha         1 KNW       0.119500
     68 H28          0.3200    -1.1940     0.3660 ha         1 KNW       0.144000
     69 N2           2.4600    -2.6770     0.0640 ns         1 KNW      -0.120000
@<TRIPOS>BOND
     1     1     3 1   
     2     1    12 1   
     3     1    41 1   
     4     1    42 1   
     5     2    11 1   
     6     2    15 ar  
     7     2    30 ar  
     8     3     4 1   
     9     3    43 1   
    10     3    44 1   
    11     4     6 1   
    12     4    45 1   
    13     4    46 1   
    14     5     9 ar  
    15     5    10 ar  
    16     5    47 1   
    17     6    35 1   
    18     6    36 1   
    19     7     8 ar  
    20     7    12 1   
    21     7    31 ar  
    22     8     9 ar  
    23     8    48 1   
    24     9    49 1   
    25    10    31 ar  
    26    10    69 1   
    27    11    37 2   
    28    11    69 1   
    29    12    13 1   
    30    13    14 1   
    31    13    51 1   
    32    13    52 1   
    33    14    20 1   
    34    14    39 1   
    35    14    53 1   
    36    15    16 ar  
    37    15    54 1   
    38    16    17 ar  
    39    16    55 1   
    40    17    29 ar  
    41    17    38 1   
    42    18    19 1   
    43    18    38 1   
    44    18    56 1   
    45    18    57 1   
    46    19    21 1   
    47    19    58 1   
    48    19    59 1   
    49    20    33 1   
    50    20    34 1   
    51    21    22 1   
    52    21    60 1   
    53    21    61 1   
    54    22    23 1   
    55    22    62 1   
    56    22    63 1   
    57    23    24 ar  
    58    23    28 ar  
    59    24    25 ar  
    60    24    64 1   
    61    25    26 ar  
    62    25    32 1   
    63    26    27 ar  
    64    26    65 1   
    65    27    28 ar  
    66    27    66 1   
    67    28    40 1   
    68    29    30 ar  
    69    29    67 1   
    70    30    68 1   
    71    31    39 1   
    72    50    69 1   
@<TRIPOS>SUBSTRUCTURE
     1 KNW         1 TEMP              0 ****  ****    0 ROOT
