@<TRIPOS>MOLECULE
KNX
   77    81     1     0     0
SMALL
No Charge or Current Charge


@<TRIPOS>ATOM
      1 N1          31.9670   -44.6070   -36.1680 nb         1 KNX      -0.211000
      2 N3          29.9430   -41.6970   -36.6020 nc         1 KNX      -0.569100
      3 C4          31.0300   -43.1930   -38.3360 ca         1 KNX       0.447900
      4 C5          30.0010   -41.8210   -35.2620 cd         1 KNX       0.423700
      5 C6          31.0410   -43.3140   -33.4440 c5         1 KNX       0.311300
      6 C7          30.7030   -42.1290   -31.4580 c5         1 KNX       0.118300
      7 C8          31.9960   -41.5770   -32.1030 c5         1 KNX       0.107300
      8 C10         29.8760   -41.0170   -30.7730 c3         1 KNX       0.167800
      9 C13         30.0660   -42.3630   -26.3660 c3         1 KNX       0.011500
     10 C15         30.0770   -38.9780   -29.3310 c3         1 KNX       0.170800
     11 C17         29.8380   -36.4750   -29.9900 c3         1 KNX      -0.074400
     12 C20         26.5560   -34.7320   -28.5180 ca         1 KNX      -0.061300
     13 C21         25.6940   -33.6820   -28.9340 ca         1 KNX      -0.103300
     14 C22         26.1960   -32.6040   -29.9070 c6         1 KNX       0.198100
     15 C24         26.0880   -35.6660   -27.5680 ca         1 KNX      -0.093000
     16 C26         23.9080   -34.5940   -27.5280 ca         1 KNX       0.116000
     17 C1          30.7110   -42.7770   -37.0250 ca         1 KNX      -0.096600
     18 C11         30.9380   -41.1480   -28.4930 c3         1 KNX       0.157800
     19 C12         29.7040   -41.6130   -27.6760 c3         1 KNX      -0.081400
     20 C14         28.7880   -42.4960   -25.4360 c          1 KNX       0.695000
     21 C16         30.1680   -37.9140   -30.4530 c3         1 KNX      -0.083400
     22 C18         28.3660   -36.2710   -29.5430 c3         1 KNX      -0.071400
     23 C19         28.0090   -34.8270   -29.0500 c6         1 KNX      -0.052400
     24 C2          31.2010   -43.5140   -35.9770 ca         1 KNX       0.119500
     25 C23         28.3150   -33.7800   -30.1580 c6         1 KNX       0.150800
     26 C25         24.7740   -35.6000   -27.0810 ca         1 KNX      -0.091000
     27 C27         24.3630   -33.6300   -28.4510 ca         1 KNX       0.120000
     28 C3          32.2210   -44.9350   -37.4570 ca         1 KNX       0.173900
     29 C9          32.4450   -42.8370   -32.8900 c5         1 KNX       0.133300
     30 N2          31.7860   -44.2790   -38.5590 nb         1 KNX      -0.310000
     31 N4          30.7620   -42.9210   -34.8230 na         1 KNX      -0.297300
     32 N5          30.6460   -40.3030   -29.6950 n3         1 KNX      -0.772600
     33 N6          27.6680   -32.4860   -29.8780 n7         1 KNX      -0.846400
     34 N7          30.5910   -42.5350   -39.4420 nv         1 KNX      -1.071900
     35 N8          30.8010   -43.6440   -26.6700 n8         1 KNX      -1.006200
     36 O1          30.0260   -42.7250   -32.5800 os         1 KNX      -0.443000
     37 O2          32.9260   -41.1300   -31.1120 oh         1 KNX      -0.729000
     38 O3          33.0700   -43.7720   -31.9950 oh         1 KNX      -0.713000
     39 O4          28.7330   -41.8070   -24.4260 o          1 KNX      -0.730000
     40 O5          27.9660   -43.3660   -25.6960 o          1 KNX      -0.730000
     41 Cl1         23.2560   -32.3630   -29.0020 cl         1 KNX      -0.192000
     42 H1          29.5240   -41.1540   -34.5530 h5         1 KNX       0.076800
     43 H2          30.9790   -44.4090   -33.4170 h2         1 KNX       0.119700
     44 H3          30.9180   -42.9180   -30.7250 h1         1 KNX       0.086700
     45 H4          31.7560   -40.7550   -32.7930 h1         1 KNX       0.044700
     46 H5          29.5800   -40.3180   -31.5640 h1         1 KNX       0.050700
     47 H6          28.9490   -41.4500   -30.3760 h1         1 KNX       0.050700
     48 H7          30.7710   -41.7230   -25.8170 h1         1 KNX       0.036700
     49 H8          30.6180   -38.5800   -28.4620 h1         1 KNX       0.044700
     50 H9          29.0260   -39.0890   -29.0320 h1         1 KNX       0.044700
     51 H10         30.5100   -36.1970   -29.1680 hc         1 KNX       0.038700
     52 H11         30.0630   -35.7980   -30.8220 hc         1 KNX       0.038700
     53 H13         25.8580   -32.8530   -30.9240 h1         1 KNX       0.067200
     54 H14         26.7410   -36.4480   -27.1890 ha         1 KNX       0.135000
     55 H15         31.5080   -42.0380   -28.7890 h1         1 KNX       0.055700
     56 H16         31.5950   -40.5860   -27.8150 h1         1 KNX       0.055700
     57 H17         29.1040   -40.7360   -27.4070 hc         1 KNX       0.041700
     58 H18         29.0640   -42.2550   -28.2910 hc         1 KNX       0.041700
     59 H19         29.5000   -38.1770   -31.2800 hc         1 KNX       0.040200
     60 H20         31.1890   -37.9200   -30.8560 hc         1 KNX       0.040200
     61 H21         27.7050   -36.5450   -30.3750 hc         1 KNX       0.048700
     62 H22         28.1640   -36.9940   -28.7480 hc         1 KNX       0.048700
     63 H23         28.6760   -34.6180   -28.2020 hc         1 KNX       0.061700
     64 H24         27.9640   -34.1560   -31.1310 h1         1 KNX       0.057700
     65 H25         29.4030   -33.6350   -30.2370 h1         1 KNX       0.057700
     66 H26         24.4260   -36.3310   -26.3550 ha         1 KNX       0.140000
     67 H27         32.8370   -45.8170   -37.6240 h5         1 KNX       0.042100
     68 H28         33.1280   -42.5720   -33.7100 h1         1 KNX       0.073700
     69 H30         27.9470   -32.1850   -28.9370 hn         1 KNX       0.411000
     70 H32         30.5970   -43.0360   -40.3260 hn         1 KNX       0.504000
     71 H33         29.8480   -41.8540   -39.3070 hn         1 KNX       0.504000
     72 H34         31.0880   -44.0820   -25.7860 hn         1 KNX       0.386000
     73 H35         30.1260   -44.3180   -27.0510 hn         1 KNX       0.386000
     74 H37         32.3380   -40.6510   -30.4560 ho         1 KNX       0.557000
     75 H38         33.4900   -43.1930   -31.3110 ho         1 KNX       0.533000
     76 Cl2         22.2580   -34.5540   -26.9010 cl         1 KNX      -0.181000
     77 H12         25.7630   -31.6270   -29.6460 h1         1 KNX       0.067200
@<TRIPOS>BOND
     1     1    24 ar  
     2     1    28 ar  
     3     2     4 2   
     4     2    17 1   
     5     3    17 ar  
     6     3    30 ar  
     7     3    34 1   
     8     4    31 1   
     9     4    42 1   
    10     5    29 1   
    11     5    31 1   
    12     5    36 1   
    13     5    43 1   
    14     6     7 1   
    15     6     8 1   
    16     6    36 1   
    17     6    44 1   
    18     7    29 1   
    19     7    37 1   
    20     7    45 1   
    21     8    32 1   
    22     8    46 1   
    23     8    47 1   
    24     9    19 1   
    25     9    20 1   
    26     9    35 1   
    27     9    48 1   
    28    10    21 1   
    29    10    32 1   
    30    10    49 1   
    31    10    50 1   
    32    11    21 1   
    33    11    22 1   
    34    11    51 1   
    35    11    52 1   
    36    12    13 ar  
    37    12    15 ar  
    38    12    23 1   
    39    13    14 1   
    40    13    27 ar  
    41    14    33 1   
    42    14    53 1   
    43    14    77 1   
    44    15    26 ar  
    45    15    54 1   
    46    16    26 ar  
    47    16    27 ar  
    48    16    76 1   
    49    17    24 ar  
    50    18    19 1   
    51    18    32 1   
    52    18    55 1   
    53    18    56 1   
    54    19    57 1   
    55    19    58 1   
    56    20    39 1   
    57    20    40 1   
    58    21    59 1   
    59    21    60 1   
    60    22    23 1   
    61    22    61 1   
    62    22    62 1   
    63    23    25 1   
    64    23    63 1   
    65    24    31 1   
    66    25    33 1   
    67    25    64 1   
    68    25    65 1   
    69    26    66 1   
    70    27    41 1   
    71    28    30 ar  
    72    28    67 1   
    73    29    38 1   
    74    29    68 1   
    75    33    69 1   
    76    34    70 1   
    77    34    71 1   
    78    35    72 1   
    79    35    73 1   
    80    37    74 1   
    81    38    75 1   
@<TRIPOS>SUBSTRUCTURE
     1 KNX         1 TEMP              0 ****  ****    0 ROOT
