@<TRIPOS>MOLECULE
KNX
   77    81     1     0     0
SMALL
abcg2


@<TRIPOS>ATOM
      1 N1          31.6240   -43.5290   -36.1840 nb         1 KNX      -0.211000
      2 N3          29.1010   -41.1180   -35.5140 nc         1 KNX      -0.569100
      3 C4          29.9990   -41.8790   -37.7740 ca         1 KNX       0.447900
      4 C5          29.4580   -41.5200   -34.3290 cd         1 KNX       0.423700
      5 C6          31.0990   -43.1320   -33.2350 c5         1 KNX       0.311300
      6 C7          30.9580   -42.2850   -31.0850 c5         1 KNX       0.118300
      7 C8          32.0090   -41.4740   -31.8370 c5         1 KNX       0.107300
      8 C10         29.9980   -41.4180   -30.2920 c3         1 KNX       0.167800
      9 C13         30.1880   -42.4150   -25.9270 c3         1 KNX       0.011500
     10 C15         30.2610   -39.2990   -29.0990 c3         1 KNX       0.170800
     11 C17         30.1240   -36.9110   -29.9760 c3         1 KNX      -0.074400
     12 C20         26.6850   -35.1950   -29.3170 ca         1 KNX      -0.061300
     13 C21         25.9430   -34.1670   -29.9070 ca         1 KNX      -0.103300
     14 C22         26.6390   -33.0650   -30.6760 c6         1 KNX       0.198100
     15 C24         26.0210   -36.1310   -28.5250 ca         1 KNX      -0.093000
     16 C26         23.9090   -35.1140   -28.9830 ca         1 KNX       0.116000
     17 C1          29.8890   -41.8400   -36.3710 ca         1 KNX      -0.096600
     18 C11         31.0260   -41.3750   -28.0820 c3         1 KNX       0.157800
     19 C12         29.8400   -41.5410   -27.1360 c3         1 KNX      -0.081400
     20 C14         29.0550   -42.3270   -24.8690 c          1 KNX       0.695000
     21 C16         30.5450   -38.3530   -30.2590 c3         1 KNX      -0.083400
     22 C18         28.6100   -36.7200   -29.9120 c3         1 KNX      -0.071400
     23 C19         28.1880   -35.3000   -29.5100 c6         1 KNX      -0.052400
     24 C2          30.7290   -42.6880   -35.6680 ca         1 KNX       0.119500
     25 C23         28.6900   -34.2770   -30.5320 c6         1 KNX       0.150800
     26 C25         24.6510   -36.0980   -28.3510 ca         1 KNX      -0.091000
     27 C27         24.5560   -34.1580   -29.7540 ca         1 KNX       0.120000
     28 C3          31.6330   -43.4780   -37.5050 ca         1 KNX       0.173900
     29 C9          32.4460   -42.4770   -32.8980 c5         1 KNX       0.133300
     30 N2          30.8910   -42.7210   -38.3090 nb         1 KNX      -0.310000
     31 N4          30.4400   -42.4710   -34.3530 na         1 KNX      -0.297300
     32 N5          30.7740   -40.6460   -29.3240 n3         1 KNX      -0.772600
     33 N6          28.0580   -32.9790   -30.4270 n7         1 KNX      -0.846400
     34 N7          29.2570   -41.1160   -38.5780 nv         1 KNX      -1.071900
     35 N8          30.5260   -43.7610   -26.3720 n8         1 KNX      -1.006200
     36 O1          30.2850   -43.0200   -32.1040 os         1 KNX      -0.443000
     37 O2          33.0680   -41.0430   -31.0380 oh         1 KNX      -0.729000
     38 O3          33.2820   -43.4670   -32.3650 oh         1 KNX      -0.713000
     39 O4          28.9040   -41.2120   -24.3260 o          1 KNX      -0.730000
     40 O5          28.3860   -43.3570   -24.6590 o          1 KNX      -0.730000
     41 CL1         23.6230   -32.9300   -30.5360 cl         1 KNX      -0.192000
     42 H1          29.0310   -41.1620   -33.4050 h5         1 KNX       0.076800
     43 H2          31.2330   -44.1800   -33.5190 h2         1 KNX       0.119700
     44 H3          31.4620   -42.9870   -30.4090 h1         1 KNX       0.086700
     45 H4          31.5150   -40.6280   -32.3420 h1         1 KNX       0.044700
     46 H5          29.4910   -40.7360   -30.9790 h1         1 KNX       0.050700
     47 H6          29.2160   -42.0280   -29.8210 h1         1 KNX       0.050700
     48 H7          31.0900   -41.9900   -25.4670 h1         1 KNX       0.036700
     49 H8          30.7620   -38.9060   -28.2090 h1         1 KNX       0.044700
     50 H9          29.1880   -39.3110   -28.8660 h1         1 KNX       0.044700
     51 H10         30.5750   -36.5790   -29.0350 hc         1 KNX       0.038700
     52 H11         30.5470   -36.2740   -30.7560 hc         1 KNX       0.038700
     53 H13         26.4730   -33.2120   -31.7490 h1         1 KNX       0.067200
     54 H14         26.5800   -36.9110   -28.0250 ha         1 KNX       0.135000
     55 H15         31.4180   -42.3610   -28.3350 h1         1 KNX       0.055700
     56 H16         31.8290   -40.8580   -27.5480 h1         1 KNX       0.055700
     57 H17         29.5110   -40.5640   -26.7790 hc         1 KNX       0.041700
     58 H18         28.9870   -41.9840   -27.6630 hc         1 KNX       0.041700
     59 H19         30.0460   -38.6950   -31.1710 hc         1 KNX       0.040200
     60 H20         31.6180   -38.3800   -30.4660 hc         1 KNX       0.040200
     61 H21         28.1690   -36.9600   -30.8850 hc         1 KNX       0.048700
     62 H22         28.1930   -37.4380   -29.2050 hc         1 KNX       0.048700
     63 H23         28.6570   -35.0730   -28.5430 hc         1 KNX       0.061700
     64 H24         28.5090   -34.6560   -31.5440 h1         1 KNX       0.057700
     65 H25         29.7690   -34.1520   -30.4330 h1         1 KNX       0.057700
     66 H26         24.1570   -36.8360   -27.7340 ha         1 KNX       0.140000
     67 H27         32.3360   -44.1370   -38.0040 h5         1 KNX       0.042100
     68 H28         32.8920   -42.0000   -33.7790 h1         1 KNX       0.073700
     69 H30         28.2160   -32.5960   -29.5020 hn         1 KNX       0.411000
     70 H32         29.3580   -41.1810   -39.5760 hn         1 KNX       0.504000
     71 H33         28.5710   -40.4830   -38.2070 hn         1 KNX       0.504000
     72 H34         30.9000   -44.2790   -25.5860 hn         1 KNX       0.386000
     73 H35         29.6580   -44.2370   -26.5940 hn         1 KNX       0.386000
     74 H37         32.6360   -40.6760   -30.2440 ho         1 KNX       0.557000
     75 H38         33.8830   -43.0440   -31.7400 ho         1 KNX       0.533000
     76 CL2         22.1960   -35.0850   -28.7880 cl         1 KNX      -0.181000
     77 H12         26.1870   -32.1030   -30.4300 h1         1 KNX       0.067200
@<TRIPOS>BOND
     1     1    24 ar  
     2     1    28 ar  
     3     2     4 2   
     4     2    17 1   
     5     3    17 ar  
     6     3    30 ar  
     7     3    34 1   
     8     4    31 1   
     9     4    42 1   
    10     5    29 1   
    11     5    31 1   
    12     5    36 1   
    13     5    43 1   
    14     6     7 1   
    15     6     8 1   
    16     6    36 1   
    17     6    44 1   
    18     7    29 1   
    19     7    37 1   
    20     7    45 1   
    21     8    32 1   
    22     8    46 1   
    23     8    47 1   
    24     9    19 1   
    25     9    20 1   
    26     9    35 1   
    27     9    48 1   
    28    10    21 1   
    29    10    32 1   
    30    10    49 1   
    31    10    50 1   
    32    11    21 1   
    33    11    22 1   
    34    11    51 1   
    35    11    52 1   
    36    12    13 ar  
    37    12    15 ar  
    38    12    23 1   
    39    13    14 1   
    40    13    27 ar  
    41    14    33 1   
    42    14    53 1   
    43    14    77 1   
    44    15    26 ar  
    45    15    54 1   
    46    16    26 ar  
    47    16    27 ar  
    48    16    76 1   
    49    17    24 ar  
    50    18    19 1   
    51    18    32 1   
    52    18    55 1   
    53    18    56 1   
    54    19    57 1   
    55    19    58 1   
    56    20    39 1   
    57    20    40 1   
    58    21    59 1   
    59    21    60 1   
    60    22    23 1   
    61    22    61 1   
    62    22    62 1   
    63    23    25 1   
    64    23    63 1   
    65    24    31 1   
    66    25    33 1   
    67    25    64 1   
    68    25    65 1   
    69    26    66 1   
    70    27    41 1   
    71    28    30 ar  
    72    28    67 1   
    73    29    38 1   
    74    29    68 1   
    75    33    69 1   
    76    34    70 1   
    77    34    71 1   
    78    35    72 1   
    79    35    73 1   
    80    37    74 1   
    81    38    75 1   
@<TRIPOS>SUBSTRUCTURE
     1 KNX         1 TEMP              0 ****  ****    0 ROOT
