@<TRIPOS>MOLECULE
KNZ
   70    73     1     0     0
SMALL
bcc


@<TRIPOS>ATOM
      1 C4           7.7520     0.7990    -0.3740 c3         1 KNZ       0.210800
      2 C14          0.7130    -3.1870     0.1640 ca         1 KNZ      -0.231600
      3 C5           8.0560     2.2410     0.0040 c3         1 KNZ      -0.068400
      4 C6           9.5580     2.4820     0.0190 c3         1 KNZ      -0.204400
      5 C11          5.2240    -3.6080    -0.7350 ca         1 KNZ      -0.144000
      6 C7           9.9970     3.9220     0.3440 c          1 KNZ       0.927600
      7 C8           6.0250    -0.9130    -0.3940 ca         1 KNZ       0.125600
      8 C9           6.9610    -1.9490    -0.4960 ca         1 KNZ      -0.186000
      9 C10          6.5640    -3.2720    -0.6480 ca         1 KNZ      -0.147000
     10 C12          4.2780    -2.5950    -0.6470 ca         1 KNZ       0.007600
     11 C13          2.1780    -3.4530     0.2340 c          1 KNZ       0.694700
     12 N1           6.3600     0.4160    -0.2140 nh         1 KNZ      -0.657000
     13 C3           5.3270     1.3680    -0.5660 c6         1 KNZ       0.179800
     14 C1           4.0120     0.9320     0.0540 c6         1 KNZ      -0.010900
     15 C15         -0.2260    -4.1890     0.3850 ca         1 KNZ       0.205900
     16 C16         -1.5790    -3.9520     0.3980 ca         1 KNZ      -0.248000
     17 C17         -2.0440    -2.6490     0.2040 ca         1 KNZ       0.166100
     18 C18         -3.9220    -1.1910     0.0870 c3         1 KNZ       0.143400
     19 C19         -5.4270    -1.3050     0.1960 c3         1 KNZ      -0.080400
     20 C2           2.8500     1.8970    -0.2590 c          1 KNZ       0.944600
     21 C20         -6.0880     0.0600     0.0450 c3         1 KNZ      -0.083400
     22 C21         -7.5940    -0.0570     0.1390 c3         1 KNZ       0.140400
     23 C22         -9.4750     1.3880     0.0900 ca         1 KNZ       0.143100
     24 C23        -10.3990     0.3550     0.2190 ca         1 KNZ      -0.216000
     25 C24        -11.7590     0.6390     0.2600 ca         1 KNZ      -0.082000
     26 C25        -12.2300     1.9380     0.1750 ca         1 KNZ      -0.193000
     27 C26        -11.3050     2.9580     0.0480 ca         1 KNZ       0.128900
     28 C27         -9.9520     2.6970     0.0050 ca         1 KNZ       0.057900
     29 C28         -1.1310    -1.6160    -0.0120 ca         1 KNZ      -0.234000
     30 C29          0.2260    -1.8980    -0.0360 ca         1 KNZ      -0.023000
     31 C30          4.6630    -1.2690    -0.4710 ca         1 KNZ       0.077100
     32 F1         -11.7100     4.2300    -0.0330 f          1 KNZ      -0.128900
     33 F2          -9.0820     3.7050    -0.1170 f          1 KNZ      -0.111900
     34 F3           0.1930    -5.4470     0.5600 f          1 KNZ      -0.136900
     35 O1           1.7810     1.4080    -0.6530 o          1 KNZ      -0.823300
     36 O2           3.1110     3.0980    -0.0500 o          1 KNZ      -0.823300
     37 O3           9.1160     4.8010     0.4030 o          1 KNZ      -0.850300
     38 O4          11.2230     4.0910     0.5090 o          1 KNZ      -0.850300
     39 O5           2.6790    -4.1350     1.1090 o          1 KNZ      -0.593100
     40 O6          -3.3710    -2.4930     0.2410 os         1 KNZ      -0.336900
     41 O7           3.6680    -0.3650    -0.3980 os         1 KNZ      -0.303900
     42 O8          -8.1450     1.2500     0.0380 os         1 KNZ      -0.299900
     43 H1           8.0980     0.6120    -1.4020 h1         1 KNZ       0.017200
     44 H2           8.3520     0.1530     0.2730 h1         1 KNZ       0.017200
     45 H3           7.5890     2.9320    -0.6980 hc         1 KNZ       0.056700
     46 H4           7.6340     2.4580     0.9890 hc         1 KNZ       0.056700
     47 H5          10.0370     1.8040     0.7340 hc         1 KNZ       0.011200
     48 H6           9.9830     2.2140    -0.9560 hc         1 KNZ       0.011200
     49 H7           4.9100    -4.6320    -0.8830 ha         1 KNZ       0.124000
     50 H8           8.0190    -1.7320    -0.4620 ha         1 KNZ       0.125000
     51 H9           7.3200    -4.0420    -0.7190 ha         1 KNZ       0.107000
     52 H10          2.3780    -2.2800    -1.4010 hn         1 KNZ       0.327500
     53 H11          5.5740     2.3440    -0.1620 h1         1 KNZ       0.067200
     54 H12          5.2160     1.4770    -1.6550 h1         1 KNZ       0.067200
     55 H13          4.1470     0.9030     1.1450 h1         1 KNZ       0.046700
     56 H14         -2.2770    -4.7660     0.5550 ha         1 KNZ       0.145000
     57 H15         -3.6380    -0.7720    -0.8840 h1         1 KNZ       0.047200
     58 H16         -3.5340    -0.5240     0.8650 h1         1 KNZ       0.047200
     59 H17         -5.7990    -1.9870    -0.5740 hc         1 KNZ       0.049700
     60 H18         -5.6890    -1.7390     1.1650 hc         1 KNZ       0.049700
     61 H19         -5.7250     0.7360     0.8240 hc         1 KNZ       0.066200
     62 H20         -5.8180     0.5020    -0.9180 hc         1 KNZ       0.066200
     63 H21         -7.9780    -0.6910    -0.6680 h1         1 KNZ       0.035700
     64 H22         -7.8860    -0.5140     1.0910 h1         1 KNZ       0.035700
     65 H23        -10.0720    -0.6730     0.2890 ha         1 KNZ       0.144000
     66 H24        -12.4630    -0.1750     0.3600 ha         1 KNZ       0.134000
     67 H25        -13.2870     2.1630     0.2060 ha         1 KNZ       0.149000
     68 H26         -1.4540    -0.5960    -0.1610 ha         1 KNZ       0.155000
     69 H27          0.9180    -1.0750    -0.1860 ha         1 KNZ       0.208000
     70 N2           2.8920    -2.8480    -0.7450 ns         1 KNZ      -0.455100
@<TRIPOS>BOND
     1     1     3 1   
     2     1    12 1   
     3     1    43 1   
     4     1    44 1   
     5     2    11 1   
     6     2    15 ar  
     7     2    30 ar  
     8     3     4 1   
     9     3    45 1   
    10     3    46 1   
    11     4     6 1   
    12     4    47 1   
    13     4    48 1   
    14     5     9 ar  
    15     5    10 ar  
    16     5    49 1   
    17     6    37 1   
    18     6    38 1   
    19     7     8 ar  
    20     7    12 1   
    21     7    31 ar  
    22     8     9 ar  
    23     8    50 1   
    24     9    51 1   
    25    10    31 ar  
    26    10    70 1   
    27    11    39 2   
    28    11    70 1   
    29    12    13 1   
    30    13    14 1   
    31    13    53 1   
    32    13    54 1   
    33    14    20 1   
    34    14    41 1   
    35    14    55 1   
    36    15    16 ar  
    37    15    34 1   
    38    16    17 ar  
    39    16    56 1   
    40    17    29 ar  
    41    17    40 1   
    42    18    19 1   
    43    18    40 1   
    44    18    57 1   
    45    18    58 1   
    46    19    21 1   
    47    19    59 1   
    48    19    60 1   
    49    20    35 1   
    50    20    36 1   
    51    21    22 1   
    52    21    61 1   
    53    21    62 1   
    54    22    42 1   
    55    22    63 1   
    56    22    64 1   
    57    23    24 ar  
    58    23    28 ar  
    59    23    42 1   
    60    24    25 ar  
    61    24    65 1   
    62    25    26 ar  
    63    25    66 1   
    64    26    27 ar  
    65    26    67 1   
    66    27    28 ar  
    67    27    32 1   
    68    28    33 1   
    69    29    30 ar  
    70    29    68 1   
    71    30    69 1   
    72    31    41 1   
    73    52    70 1   
@<TRIPOS>SUBSTRUCTURE
     1 KNZ         1 TEMP              0 ****  ****    0 ROOT
