@<TRIPOS>MOLECULE
KNZ
   70    73     1     0     0
SMALL
No Charge or Current Charge


@<TRIPOS>ATOM
      1 C4           8.1780     0.7730    -0.3230 c3         1 KNZ       0.210800
      2 C14          0.5660    -3.3540    -0.1800 ca         1 KNZ      -0.231600
      3 C5           8.6190     2.2580    -0.3710 c3         1 KNZ      -0.068400
      4 C6          10.1340     2.4310    -0.6530 c3         1 KNZ      -0.204400
      5 C11          5.2090    -3.5010    -0.2410 ca         1 KNZ      -0.126000
      6 C7          10.5000     3.9260    -0.6830 c          1 KNZ       0.717000
      7 C8           6.2300    -0.8560    -0.0990 ca         1 KNZ       0.264000
      8 C9           7.0990    -1.9650    -0.1910 ca         1 KNZ      -0.168000
      9 C10          6.5920    -3.2720    -0.2560 ca         1 KNZ      -0.129000
     10 C12          4.3110    -2.4170    -0.1490 ca         1 KNZ      -0.085000
     11 C13          2.0490    -3.6670    -0.2650 c          1 KNZ       0.627700
     12 N1           6.7360     0.4840    -0.0760 nh         1 KNZ      -0.795400
     13 C3           5.7470     1.6100    -0.0960 c6         1 KNZ       0.179800
     14 C1           4.4120     1.2090     0.5710 c6         1 KNZ       0.012300
     15 C15         -0.3880    -4.3840     0.0030 ca         1 KNZ       0.241000
     16 C16         -1.7570    -4.0920     0.0780 ca         1 KNZ      -0.230000
     17 C17         -2.2140    -2.7760    -0.0300 ca         1 KNZ       0.166100
     18 C18         -4.1440    -1.2410    -0.0480 c3         1 KNZ       0.166600
     19 C19         -5.6720    -1.3860     0.0870 c3         1 KNZ      -0.080400
     20 C2           3.3850     2.3780     0.4550 c          1 KNZ       0.734000
     21 C20         -6.4180    -0.0350    -0.0030 c3         1 KNZ      -0.083400
     22 C21         -7.9450    -0.1820     0.1320 c3         1 KNZ       0.163600
     23 C22         -9.8810     1.3550     0.1130 ca         1 KNZ       0.143100
     24 C23        -10.8050     0.3000     0.3010 ca         1 KNZ      -0.198000
     25 C24        -12.1830     0.5690     0.3780 ca         1 KNZ      -0.064000
     26 C25        -12.6490     1.8900     0.2690 ca         1 KNZ      -0.175000
     27 C26        -11.7370     2.9410     0.0830 ca         1 KNZ       0.164000
     28 C27        -10.3560     2.6790     0.0050 ca         1 KNZ       0.093000
     29 C28         -1.2830    -1.7380    -0.2150 ca         1 KNZ      -0.216000
     30 C29          0.0920    -2.0200    -0.2900 ca         1 KNZ      -0.005000
     31 C30          4.8250    -1.1040    -0.0620 ca         1 KNZ       0.077100
     32 F1         -12.1970     4.2090    -0.0200 f          1 KNZ      -0.164000
     33 F2          -9.4850     3.7010    -0.1750 f          1 KNZ      -0.147000
     34 F3          -0.0180    -5.6760     0.1390 f          1 KNZ      -0.172000
     35 O1           2.4730     2.2370    -0.3510 o          1 KNZ      -0.718000
     36 O2           3.1820     3.0040     1.4890 o          1 KNZ      -0.718000
     37 O3          10.4120     4.5200    -1.7470 o          1 KNZ      -0.745000
     38 O4          10.8130     4.4640     0.3680 o          1 KNZ      -0.745000
     39 O5           2.4650    -4.8000    -0.4820 o          1 KNZ      -0.593100
     40 O6          -3.5720    -2.5570     0.0510 os         1 KNZ      -0.360100
     41 O7           3.9250    -0.0580     0.0470 os         1 KNZ      -0.327100
     42 O8          -8.5180     1.1320     0.0320 os         1 KNZ      -0.323100
     43 H1           8.4630     0.3140    -1.2800 h1         1 KNZ       0.017200
     44 H2           8.7690     0.2840     0.4630 h1         1 KNZ       0.017200
     45 H3           8.0520     2.7810    -1.1510 hc         1 KNZ       0.056700
     46 H4           8.3810     2.7360     0.5870 hc         1 KNZ       0.056700
     47 H5          10.6510     1.9240     0.1710 hc         1 KNZ       0.011200
     48 H6          10.3100     1.9710    -1.6340 hc         1 KNZ       0.011200
     49 H7           4.8590    -4.5270    -0.2930 ha         1 KNZ       0.106000
     50 H8           8.1760    -1.8310    -0.2160 ha         1 KNZ       0.107000
     51 H9           7.2770    -4.1150    -0.3250 ha         1 KNZ       0.089000
     52 H10          2.4100    -1.7000     0.0510 hn         1 KNZ       0.161000
     53 H11          6.1300     2.4860     0.4470 h1         1 KNZ       0.067200
     54 H12          5.5510     1.9250    -1.1320 h1         1 KNZ       0.067200
     55 H13          4.6080     1.0630     1.6430 h1         1 KNZ       0.046700
     56 H14         -2.4700    -4.8980     0.2250 ha         1 KNZ       0.127000
     57 H15         -3.9020    -0.7840    -1.0170 h1         1 KNZ       0.047200
     58 H16         -3.7650    -0.5910     0.7530 h1         1 KNZ       0.047200
     59 H17         -6.0380    -2.0540    -0.7030 hc         1 KNZ       0.049700
     60 H18         -5.9020    -1.8630     1.0480 hc         1 KNZ       0.049700
     61 H19         -6.0530     0.6340     0.7860 hc         1 KNZ       0.066200
     62 H20         -6.1890     0.4430    -0.9640 hc         1 KNZ       0.066200
     63 H21         -8.3240    -0.8320    -0.6690 h1         1 KNZ       0.035700
     64 H22         -8.1860    -0.6380     1.1010 h1         1 KNZ       0.035700
     65 H23        -10.4740    -0.7320     0.3880 ha         1 KNZ       0.126000
     66 H24        -12.8900    -0.2460     0.5220 ha         1 KNZ       0.116000
     67 H25        -13.7140     2.1010     0.3290 ha         1 KNZ       0.131000
     68 H26         -1.6050    -0.7040    -0.3070 ha         1 KNZ       0.137000
     69 H27          0.7720    -1.1830    -0.4510 ha         1 KNZ       0.190000
     70 N2           2.8930    -2.5710    -0.1200 ns         1 KNZ      -0.129000
@<TRIPOS>BOND
     1     1     3 1   
     2     1    12 1   
     3     1    43 1   
     4     1    44 1   
     5     2    11 1   
     6     2    15 ar  
     7     2    30 ar  
     8     3     4 1   
     9     3    45 1   
    10     3    46 1   
    11     4     6 1   
    12     4    47 1   
    13     4    48 1   
    14     5     9 ar  
    15     5    10 ar  
    16     5    49 1   
    17     6    37 1   
    18     6    38 1   
    19     7     8 ar  
    20     7    12 1   
    21     7    31 ar  
    22     8     9 ar  
    23     8    50 1   
    24     9    51 1   
    25    10    31 ar  
    26    10    70 1   
    27    11    39 2   
    28    11    70 1   
    29    12    13 1   
    30    13    14 1   
    31    13    53 1   
    32    13    54 1   
    33    14    20 1   
    34    14    41 1   
    35    14    55 1   
    36    15    16 ar  
    37    15    34 1   
    38    16    17 ar  
    39    16    56 1   
    40    17    29 ar  
    41    17    40 1   
    42    18    19 1   
    43    18    40 1   
    44    18    57 1   
    45    18    58 1   
    46    19    21 1   
    47    19    59 1   
    48    19    60 1   
    49    20    35 1   
    50    20    36 1   
    51    21    22 1   
    52    21    61 1   
    53    21    62 1   
    54    22    42 1   
    55    22    63 1   
    56    22    64 1   
    57    23    24 ar  
    58    23    28 ar  
    59    23    42 1   
    60    24    25 ar  
    61    24    65 1   
    62    25    26 ar  
    63    25    66 1   
    64    26    27 ar  
    65    26    67 1   
    66    27    28 ar  
    67    27    32 1   
    68    28    33 1   
    69    29    30 ar  
    70    29    68 1   
    71    30    69 1   
    72    31    41 1   
    73    52    70 1   
@<TRIPOS>SUBSTRUCTURE
     1 KNZ         1 TEMP              0 ****  ****    0 ROOT
