@<TRIPOS>MOLECULE
KO0
   60    63     1     0     0
SMALL
bcc


@<TRIPOS>ATOM
      1 C1         -31.8450    47.0730    25.4960 c5         1 KO0      -0.092700
      2 C2         -31.5380    48.4630    24.9250 c5         1 KO0      -0.177700
      3 C3         -32.6480    49.4680    25.2350 c6         1 KO0      -0.062400
      4 C4         -32.8490    49.6350    26.7530 c6         1 KO0      -0.056700
      5 C5         -32.3350    48.4070    27.5260 c6         1 KO0      -0.047700
      6 C6         -32.7240    47.1230    26.7520 c6         1 KO0      -0.005500
      7 C7         -32.4730    46.3490    24.2990 c5         1 KO0       0.152100
      8 C8         -31.4400    48.2150    23.4430 c          1 KO0       0.733600
      9 O9         -31.9340    47.0170    23.1370 os         1 KO0      -0.406900
     10 O10        -31.0090    48.9530    22.5980 o          1 KO0      -0.569500
     11 C11        -32.1810    44.8720    24.1910 c3         1 KO0      -0.096100
     12 C12        -32.7470    48.4660    28.9970 c6         1 KO0      -0.068400
     13 C13        -34.2360    48.6980    29.2070 c6         1 KO0      -0.074400
     14 C14        -34.6590    49.9900    28.5210 c6         1 KO0      -0.073400
     15 C15        -34.3250    49.9320    27.0370 c6         1 KO0      -0.072400
     16 C16        -32.6630    45.9010    27.6210 c2         1 KO0      -0.169200
     17 C17        -31.7210    44.9670    27.6610 c2         1 KO0      -0.165200
     18 C18        -31.7510    43.7790    28.5770 c6         1 KO0       0.222700
     19 C19        -32.0160    42.5220    27.7440 c6         1 KO0      -0.070400
     20 C20        -31.9050    41.2470    28.5660 c6         1 KO0      -0.073400
     21 C21        -30.5690    41.2200    29.2920 c6         1 KO0      -0.071400
     22 C22        -30.3610    42.4780    30.1300 c6         1 KO0       0.190500
     23 N23        -30.4760    43.6630    29.2790 n3         1 KO0      -0.728600
     24 C24        -31.2610    42.4820    31.3710 c3         1 KO0      -0.124100
     25 C25        -30.1130    44.8770    29.9780 c3         1 KO0       0.161100
     26 H1         -30.8900    46.5960    25.7340 hc         1 KO0       0.070700
     27 H2         -30.5840    48.8570    25.2800 hc         1 KO0       0.089700
     28 H3         -32.4270    50.4300    24.7700 hc         1 KO0       0.052700
     29 H4         -33.5820    49.1190    24.7810 hc         1 KO0       0.052700
     30 H5         -32.2630    50.4970    27.0910 hc         1 KO0       0.051700
     31 H6         -31.2380    48.4350    27.5230 hc         1 KO0       0.046700
     32 H7         -33.7700    47.2250    26.4350 hc         1 KO0       0.058700
     33 H8         -33.5560    46.5110    24.2860 h1         1 KO0       0.058700
     34 H9         -32.6430    44.3470    25.0250 hc         1 KO0       0.051033
     35 H10        -32.5850    44.4540    23.2680 hc         1 KO0       0.051033
     36 H11        -31.1080    44.6780    24.2240 hc         1 KO0       0.051033
     37 H12        -32.4120    47.5640    29.5150 hc         1 KO0       0.042200
     38 H13        -32.2020    49.2960    29.4610 hc         1 KO0       0.042200
     39 H14        -34.4590    48.7400    30.2760 hc         1 KO0       0.039700
     40 H15        -34.8140    47.8600    28.8030 hc         1 KO0       0.039700
     41 H16        -34.1380    50.8340    28.9870 hc         1 KO0       0.041200
     42 H17        -35.7280    50.1710    28.6550 hc         1 KO0       0.041200
     43 H18        -34.5980    50.8690    26.5430 hc         1 KO0       0.038700
     44 H19        -34.9460    49.1580    26.5710 hc         1 KO0       0.038700
     45 H20        -33.4900    45.8090    28.3230 ha         1 KO0       0.119000
     46 H21        -30.8680    44.9960    26.9870 ha         1 KO0       0.130000
     47 H22        -32.5900    43.9130    29.2840 h1         1 KO0       0.024700
     48 H23        -31.2910    42.4890    26.9220 hc         1 KO0       0.045200
     49 H24        -33.0050    42.6070    27.2890 hc         1 KO0       0.045200
     50 H25        -32.7310    41.1920    29.2820 hc         1 KO0       0.040200
     51 H26        -32.0050    40.3730    27.9190 hc         1 KO0       0.040200
     52 H27        -30.4900    40.3390    29.9340 hc         1 KO0       0.046700
     53 H28        -29.7620    41.1470    28.5550 hc         1 KO0       0.046700
     54 H29        -29.3250    42.4670    30.4880 h1         1 KO0       0.054700
     55 H31        -31.0650    43.3440    32.0100 hc         1 KO0       0.036367
     56 H32        -32.3230    42.4940    31.1240 hc         1 KO0       0.036367
     57 H33        -31.0760    41.5880    31.9690 hc         1 KO0       0.036367
     58 H34        -29.1900    44.7140    30.5370 h1         1 KO0       0.029033
     59 H35        -29.9280    45.6870    29.2710 h1         1 KO0       0.029033
     60 H36        -30.8740    45.2360    30.6870 h1         1 KO0       0.029033
@<TRIPOS>BOND
     1     1     2 1   
     2     1     6 1   
     3     1     7 1   
     4     1    26 1   
     5     2     3 1   
     6     2     8 1   
     7     2    27 1   
     8     3     4 1   
     9     3    28 1   
    10     3    29 1   
    11     4     5 1   
    12     4    15 1   
    13     4    30 1   
    14     5     6 1   
    15     5    12 1   
    16     5    31 1   
    17     6    16 1   
    18     6    32 1   
    19     7     9 1   
    20     7    11 1   
    21     7    33 1   
    22     8     9 1   
    23     8    10 2   
    24    11    34 1   
    25    11    35 1   
    26    11    36 1   
    27    12    13 1   
    28    12    37 1   
    29    12    38 1   
    30    13    14 1   
    31    13    39 1   
    32    13    40 1   
    33    14    15 1   
    34    14    41 1   
    35    14    42 1   
    36    15    43 1   
    37    15    44 1   
    38    16    17 2   
    39    16    45 1   
    40    17    18 1   
    41    17    46 1   
    42    18    19 1   
    43    18    23 1   
    44    18    47 1   
    45    19    20 1   
    46    19    48 1   
    47    19    49 1   
    48    20    21 1   
    49    20    50 1   
    50    20    51 1   
    51    21    22 1   
    52    21    52 1   
    53    21    53 1   
    54    22    23 1   
    55    22    24 1   
    56    22    54 1   
    57    23    25 1   
    58    24    55 1   
    59    24    56 1   
    60    24    57 1   
    61    25    58 1   
    62    25    59 1   
    63    25    60 1   
@<TRIPOS>SUBSTRUCTURE
     1 KO0         1 TEMP              0 ****  ****    0 ROOT
