@<TRIPOS>MOLECULE
KO0
   60    63     1     0     0
SMALL
No Charge or Current Charge


@<TRIPOS>ATOM
      1 C1         -32.2250    46.8570    25.2890 c5         1 KO0      -0.092700
      2 C2         -31.5810    48.1550    24.7320 c5         1 KO0      -0.177700
      3 C3         -32.3560    49.4330    25.1490 c6         1 KO0      -0.062400
      4 C4         -32.5580    49.5450    26.7000 c6         1 KO0      -0.056700
      5 C5         -32.2350    48.2040    27.4630 c6         1 KO0      -0.047700
      6 C6         -32.8620    46.9830    26.7140 c6         1 KO0      -0.005500
      7 C7         -33.2320    46.5660    24.1380 c5         1 KO0       0.175300
      8 C8         -31.5810    47.8880    23.2210 c          1 KO0       0.658100
      9 O9         -32.5350    46.9520    22.9340 os         1 KO0      -0.430100
     10 O10        -30.7880    48.3140    22.3940 o          1 KO0      -0.494000
     11 C11        -33.7000    45.1030    24.0330 c3         1 KO0      -0.096100
     12 C12        -32.6230    48.3150    28.9710 c6         1 KO0      -0.068400
     13 C13        -34.0800    48.7800    29.1860 c6         1 KO0      -0.074400
     14 C14        -34.3110    50.1450    28.5040 c6         1 KO0      -0.073400
     15 C15        -34.0030    50.0610    26.9920 c6         1 KO0      -0.072400
     16 C16        -32.7460    45.6710    27.4840 c2         1 KO0      -0.219200
     17 C17        -31.5810    45.1210    27.8720 c2         1 KO0      -0.215200
     18 C18        -31.4770    43.8130    28.6350 c6         1 KO0       0.222700
     19 C19        -31.1570    42.6740    27.6280 c6         1 KO0      -0.070400
     20 C20        -30.9770    41.3120    28.3320 c6         1 KO0      -0.073400
     21 C21        -29.9330    41.4400    29.4640 c6         1 KO0      -0.071400
     22 C22        -30.2900    42.5820    30.4560 c6         1 KO0       0.190500
     23 N23        -30.4530    43.8800    29.7230 n3         1 KO0      -0.728600
     24 C24        -31.5100    42.2000    31.3510 c3         1 KO0      -0.124100
     25 C25        -30.6240    45.0430    30.6310 c3         1 KO0       0.161100
     26 H1         -31.4650    46.0680    25.3370 hc         1 KO0       0.070700
     27 H2         -30.5480    48.3140    25.0600 hc         1 KO0       0.089700
     28 H3         -31.8310    50.3250    24.7780 hc         1 KO0       0.052700
     29 H4         -33.3290    49.4360    24.6370 hc         1 KO0       0.052700
     30 H5         -31.8540    50.3020    27.0750 hc         1 KO0       0.051700
     31 H6         -31.1450    48.0650    27.4470 hc         1 KO0       0.046700
     32 H7         -33.9350    47.1850    26.5940 hc         1 KO0       0.058700
     33 H8         -34.1180    47.2100    24.2320 h1         1 KO0       0.058700
     34 H9         -34.2440    44.8000    24.9350 hc         1 KO0       0.051033
     35 H10        -34.3710    44.9670    23.1770 hc         1 KO0       0.051033
     36 H11        -32.8490    44.4220    23.9100 hc         1 KO0       0.051033
     37 H12        -32.4580    47.3630    29.4910 hc         1 KO0       0.042200
     38 H13        -31.9480    49.0320    29.4580 hc         1 KO0       0.042200
     39 H14        -34.2880    48.8630    30.2610 hc         1 KO0       0.039700
     40 H15        -34.7800    48.0330    28.7880 hc         1 KO0       0.039700
     41 H16        -33.6760    50.9100    28.9720 hc         1 KO0       0.041200
     42 H17        -35.3510    50.4660    28.6540 hc         1 KO0       0.041200
     43 H18        -34.1390    51.0530    26.5400 hc         1 KO0       0.038700
     44 H19        -34.7440    49.4050    26.5150 hc         1 KO0       0.038700
     45 H20        -33.6910    45.1770    27.7190 ha         1 KO0       0.169000
     46 H21        -30.6320    45.6030    27.6430 ha         1 KO0       0.180000
     47 H22        -32.4620    43.6040    29.0790 h1         1 KO0       0.024700
     48 H23        -30.2410    42.9220    27.0750 hc         1 KO0       0.045200
     49 H24        -31.9600    42.6030    26.8810 hc         1 KO0       0.045200
     50 H25        -31.9390    40.9680    28.7350 hc         1 KO0       0.040200
     51 H26        -30.6540    40.5540    27.6060 hc         1 KO0       0.040200
     52 H27        -29.8400    40.4860    30.0010 hc         1 KO0       0.046700
     53 H28        -28.9450    41.6410    29.0260 hc         1 KO0       0.046700
     54 H29        -29.4340    42.6760    31.1420 h1         1 KO0       0.054700
     55 H31        -31.6780    42.9420    32.1400 hc         1 KO0       0.036367
     56 H32        -32.4390    42.1090    30.7770 hc         1 KO0       0.036367
     57 H33        -31.3390    41.2390    31.8500 hc         1 KO0       0.036367
     58 H34        -29.8810    45.0160    31.4390 h1         1 KO0       0.029033
     59 H35        -30.4870    45.9890    30.0910 h1         1 KO0       0.029033
     60 H36        -31.6250    45.0490    31.0820 h1         1 KO0       0.029033
@<TRIPOS>BOND
     1     1     2 1   
     2     1     6 1   
     3     1     7 1   
     4     1    26 1   
     5     2     3 1   
     6     2     8 1   
     7     2    27 1   
     8     3     4 1   
     9     3    28 1   
    10     3    29 1   
    11     4     5 1   
    12     4    15 1   
    13     4    30 1   
    14     5     6 1   
    15     5    12 1   
    16     5    31 1   
    17     6    16 1   
    18     6    32 1   
    19     7     9 1   
    20     7    11 1   
    21     7    33 1   
    22     8     9 1   
    23     8    10 2   
    24    11    34 1   
    25    11    35 1   
    26    11    36 1   
    27    12    13 1   
    28    12    37 1   
    29    12    38 1   
    30    13    14 1   
    31    13    39 1   
    32    13    40 1   
    33    14    15 1   
    34    14    41 1   
    35    14    42 1   
    36    15    43 1   
    37    15    44 1   
    38    16    17 2   
    39    16    45 1   
    40    17    18 1   
    41    17    46 1   
    42    18    19 1   
    43    18    23 1   
    44    18    47 1   
    45    19    20 1   
    46    19    48 1   
    47    19    49 1   
    48    20    21 1   
    49    20    50 1   
    50    20    51 1   
    51    21    22 1   
    52    21    52 1   
    53    21    53 1   
    54    22    23 1   
    55    22    24 1   
    56    22    54 1   
    57    23    25 1   
    58    24    55 1   
    59    24    56 1   
    60    24    57 1   
    61    25    58 1   
    62    25    59 1   
    63    25    60 1   
@<TRIPOS>SUBSTRUCTURE
     1 KO0         1 TEMP              0 ****  ****    0 ROOT
