@<TRIPOS>MOLECULE
KO1
   30    30     1     0     0
SMALL
No Charge or Current Charge


@<TRIPOS>ATOM
      1 OA1          1.7950     2.2270     1.3260 o          1 KO1      -0.687500
      2 C1           2.1540     1.7290     0.2640 c          1 KO1       0.720000
      3 O1B          2.7790     2.4180    -0.5420 o          1 KO1      -0.687500
      4 C2           1.1900     0.6420    -0.4240 c6         1 KO1       0.199000
      5 O6          -0.1720     0.6790     0.1040 os         1 KO1      -0.453000
      6 C6          -1.0940    -0.2900    -0.4790 c6         1 KO1       0.106300
      7 C7          -2.5230    -0.0250     0.1030 c3         1 KO1       0.177300
      8 C8          -3.0190     1.4310    -0.1100 c3         1 KO1       0.124600
      9 O8          -4.3910     1.5530     0.3150 oh         1 KO1      -0.659000
     10 O7          -3.5110    -0.8990    -0.4780 oh         1 KO1      -0.704000
     11 C5          -0.5810    -1.7420    -0.2100 c6         1 KO1       0.178300
     12 O5          -0.4870    -1.9960     1.2080 oh         1 KO1      -0.724000
     13 C4           0.8470    -1.8740    -0.8450 c6         1 KO1       0.124300
     14 O4           1.3950    -3.1920    -0.6430 oh         1 KO1      -0.706000
     15 C3           1.8050    -0.8010    -0.2180 c6         1 KO1       0.140300
     16 O3           2.0010    -1.1350     1.1870 oh         1 KO1      -0.776000
     17 O2           1.0930     0.9560    -1.8350 oh         1 KO1      -0.766000
     18 H6          -1.1520    -0.1260    -1.5650 h1         1 KO1       0.028700
     19 H7          -2.4660    -0.1910     1.1890 h1         1 KO1       0.108700
     20 H8          -2.3810     2.1180     0.4630 h1         1 KO1       0.032200
     21 H8A         -2.9230     1.6960    -1.1720 h1         1 KO1       0.032200
     22 HO8         -4.6350     2.5030     0.2360 ho         1 KO1       0.429000
     23 HO7         -4.3550    -0.4010    -0.3540 ho         1 KO1       0.481000
     24 H5          -1.2610    -2.4600    -0.6920 h1         1 KO1       0.060700
     25 HO5          0.4160    -1.6140     1.4220 ho         1 KO1       0.543000
     26 H4           0.7590    -1.6820    -1.9250 h1         1 KO1       0.036700
     27 HO4          1.7570    -3.1720     0.2730 ho         1 KO1       0.490000
     28 H3           2.7680    -0.8470    -0.7480 h1         1 KO1       0.033700
     29 HO3          2.8800    -0.7670     1.4640 ho         1 KO1       0.576000
     30 HO2          1.7330     1.7120    -1.9190 ho         1 KO1       0.544000
@<TRIPOS>BOND
     1     1     2 1   
     2     2     3 1   
     3     2     4 1   
     4     4     5 1   
     5     4    15 1   
     6     4    17 1   
     7     5     6 1   
     8     6     7 1   
     9     6    11 1   
    10     6    18 1   
    11     7     8 1   
    12     7    10 1   
    13     7    19 1   
    14     8     9 1   
    15     8    20 1   
    16     8    21 1   
    17     9    22 1   
    18    10    23 1   
    19    11    12 1   
    20    11    13 1   
    21    11    24 1   
    22    12    25 1   
    23    13    14 1   
    24    13    15 1   
    25    13    26 1   
    26    14    27 1   
    27    15    16 1   
    28    15    28 1   
    29    16    29 1   
    30    17    30 1   
@<TRIPOS>SUBSTRUCTURE
     1 KO1         1 TEMP              0 ****  ****    0 ROOT
