@<TRIPOS>MOLECULE
KO1
   30    30     1     0     0
SMALL
abcg2


@<TRIPOS>ATOM
      1 OA1          2.3010     1.5200     1.4480 o          1 KO1      -0.687500
      2 C1           1.9430     1.7250     0.2670 c          1 KO1       0.720000
      3 O1B          2.1320     2.7430    -0.4130 o          1 KO1      -0.687500
      4 C2           1.1560     0.5850    -0.4440 c6         1 KO1       0.199000
      5 O6          -0.1450     0.6730     0.0950 os         1 KO1      -0.453000
      6 C6          -1.0720    -0.2740    -0.4110 c6         1 KO1       0.106300
      7 C7          -2.4320     0.0480     0.2150 c3         1 KO1       0.177300
      8 C8          -2.8850     1.4560    -0.1400 c3         1 KO1       0.124600
      9 O8          -4.1040     1.7150     0.5190 oh         1 KO1      -0.659000
     10 O7          -3.3880    -0.9170    -0.1620 oh         1 KO1      -0.704000
     11 C5          -0.6090    -1.7060    -0.1250 c6         1 KO1       0.178300
     12 O5          -0.6510    -2.0250     1.2430 oh         1 KO1      -0.724000
     13 C4           0.7880    -1.8710    -0.7280 c6         1 KO1       0.124300
     14 O4           1.2380    -3.1800    -0.4780 oh         1 KO1      -0.706000
     15 C3           1.7350    -0.8130    -0.1590 c6         1 KO1       0.140300
     16 O3           1.8770    -1.0250     1.2310 oh         1 KO1      -0.776000
     17 O2           1.1710     0.8080    -1.8080 oh         1 KO1      -0.766000
     18 H6          -1.1660    -0.1660    -1.5030 h1         1 KO1       0.028700
     19 H7          -2.3420    -0.0290     1.3030 h1         1 KO1       0.108700
     20 H8          -2.1100     2.1700     0.1530 h1         1 KO1       0.032200
     21 H8A         -2.9940     1.5330    -1.2340 h1         1 KO1       0.032200
     22 HO8         -4.3410     2.6310     0.3520 ho         1 KO1       0.429000
     23 HO7         -3.5540    -0.8340    -1.1080 ho         1 KO1       0.481000
     24 H5          -1.2910    -2.3880    -0.6420 h1         1 KO1       0.060700
     25 HO5          0.1620    -1.6640     1.6320 ho         1 KO1       0.543000
     26 H4           0.6950    -1.6930    -1.8090 h1         1 KO1       0.036700
     27 HO4          2.0740    -3.3010    -0.9380 ho         1 KO1       0.490000
     28 H3           2.7120    -0.8820    -0.6630 h1         1 KO1       0.033700
     29 HO3          2.1060    -0.1370     1.6010 ho         1 KO1       0.576000
     30 HO2          1.4160     1.7470    -1.8990 ho         1 KO1       0.544000
@<TRIPOS>BOND
     1     1     2 1   
     2     2     3 1   
     3     2     4 1   
     4     4     5 1   
     5     4    15 1   
     6     4    17 1   
     7     5     6 1   
     8     6     7 1   
     9     6    11 1   
    10     6    18 1   
    11     7     8 1   
    12     7    10 1   
    13     7    19 1   
    14     8     9 1   
    15     8    20 1   
    16     8    21 1   
    17     9    22 1   
    18    10    23 1   
    19    11    12 1   
    20    11    13 1   
    21    11    24 1   
    22    12    25 1   
    23    13    14 1   
    24    13    15 1   
    25    13    26 1   
    26    14    27 1   
    27    15    16 1   
    28    15    28 1   
    29    16    29 1   
    30    17    30 1   
@<TRIPOS>SUBSTRUCTURE
     1 KO1         1 TEMP              0 ****  ****    0 ROOT
