@<TRIPOS>MOLECULE
KO2
   37    37     1     0     0
SMALL
abcg2


@<TRIPOS>ATOM
      1 C1          -1.9270    -0.9050     1.4440 c          1 KO2       0.739000
      2 O1B         -1.4410    -0.8260     2.5800 o          1 KO2      -0.690500
      3 C2          -1.0950    -0.3540     0.2450 c6         1 KO2       0.242000
      4 O6           0.1420     0.0860     0.7210 os         1 KO2      -0.415000
      5 C6           1.0180     0.6170    -0.2530 c6         1 KO2       0.137300
      6 C7           2.3590     0.8750     0.4420 c3         1 KO2       0.177300
      7 C8           2.9340    -0.4200     0.9970 c3         1 KO2       0.123600
      8 O8           4.1330    -0.1310     1.6750 oh         1 KO2      -0.658000
      9 O7           3.2580     1.5120    -0.4360 oh         1 KO2      -0.711000
     10 C5           0.4230     1.8560    -0.9100 c6         1 KO2       0.173300
     11 O5           0.3800     2.8990     0.0290 oh         1 KO2      -0.689000
     12 C4          -0.9520     1.4840    -1.4640 c6         1 KO2       0.079300
     13 O4          -1.5510     2.6730    -1.9430 oh         1 KO2      -0.690000
     14 C3          -1.8500     0.7950    -0.4320 c6         1 KO2       0.150300
     15 O3          -2.2760     1.6720     0.5780 oh         1 KO2      -0.667000
     16 O2          -0.9370    -1.3280    -0.7530 os         1 KO2      -0.496000
     17 C11          1.0170    -3.9060    -1.9270 c2         1 KO2      -0.357000
     18 C10         -0.1500    -3.3880    -1.5660 c2         1 KO2      -0.185200
     19 C9          -0.3440    -2.5460    -0.3470 c3         1 KO2       0.201800
     20 O1A         -3.0280    -1.3820     1.1120 o          1 KO2      -0.690500
     21 H6           1.1910    -0.1170    -1.0560 h1         1 KO2       0.024700
     22 H7           2.2030     1.5740     1.2690 h1         1 KO2       0.116700
     23 H8           2.1980    -0.8860     1.6600 h1         1 KO2       0.034200
     24 H8A          3.1010    -1.1210     0.1620 h1         1 KO2       0.034200
     25 HO8          4.4690    -0.9510     2.0460 ho         1 KO2       0.429000
     26 HO7          3.4810     0.8990    -1.1450 ho         1 KO2       0.481000
     27 H5           1.0600     2.1250    -1.7660 h1         1 KO2       0.021700
     28 HO5         -0.0400     3.6600    -0.3830 ho         1 KO2       0.500000
     29 H4          -0.7860     0.7760    -2.2850 h1         1 KO2       0.046700
     30 HO4         -2.3290     2.4420    -2.4620 ho         1 KO2       0.443000
     31 H3          -2.7140     0.3650    -0.9620 h1         1 KO2       0.052700
     32 HO3         -2.4670     2.5210     0.1650 ho         1 KO2       0.484000
     33 H11          1.9220    -3.7260    -1.3580 ha         1 KO2       0.149000
     34 H11A         1.1130    -4.5350    -2.8020 ha         1 KO2       0.149000
     35 H10         -1.0370    -3.5890    -2.1590 ha         1 KO2       0.171000
     36 H9           0.6190    -2.3880     0.1520 h1         1 KO2       0.044700
     37 H9A         -0.9950    -3.0740     0.3610 h1         1 KO2       0.044700
@<TRIPOS>BOND
     1     1     2 1   
     2     1     3 1   
     3     1    20 1   
     4     3     4 1   
     5     3    14 1   
     6     3    16 1   
     7     4     5 1   
     8     5     6 1   
     9     5    10 1   
    10     5    21 1   
    11     6     7 1   
    12     6     9 1   
    13     6    22 1   
    14     7     8 1   
    15     7    23 1   
    16     7    24 1   
    17     8    25 1   
    18     9    26 1   
    19    10    11 1   
    20    10    12 1   
    21    10    27 1   
    22    11    28 1   
    23    12    13 1   
    24    12    14 1   
    25    12    29 1   
    26    13    30 1   
    27    14    15 1   
    28    14    31 1   
    29    15    32 1   
    30    16    19 1   
    31    17    18 2   
    32    17    33 1   
    33    17    34 1   
    34    18    19 1   
    35    18    35 1   
    36    19    36 1   
    37    19    37 1   
@<TRIPOS>SUBSTRUCTURE
     1 KO2         1 TEMP              0 ****  ****    0 ROOT
