@<TRIPOS>MOLECULE
KO2
   37    37     1     0     0
SMALL
No Charge or Current Charge


@<TRIPOS>ATOM
      1 C1          -2.1670    -0.8150     1.5480 c          1 KO2       0.739000
      2 O1B         -1.7190    -0.6380     2.6800 o          1 KO2      -0.690500
      3 C2          -1.2260    -0.3590     0.3200 c6         1 KO2       0.242000
      4 O6           0.1080     0.0550     0.7730 os         1 KO2      -0.415000
      5 C6           0.9950     0.5260    -0.2800 c6         1 KO2       0.137300
      6 C7           2.4160     0.7480     0.3370 c3         1 KO2       0.177300
      7 C8           2.9760    -0.5040     1.0660 c3         1 KO2       0.123600
      8 O8           4.3350    -0.2660     1.4820 oh         1 KO2      -0.658000
      9 O7           3.3890     1.1280    -0.6580 oh         1 KO2      -0.711000
     10 C5           0.4130     1.8000    -0.9720 c6         1 KO2       0.173300
     11 O5           0.4060     2.9550    -0.1130 oh         1 KO2      -0.689000
     12 C4          -1.0430     1.5130    -1.4650 c6         1 KO2       0.079300
     13 O4          -1.6520     2.7380    -1.9440 oh         1 KO2      -0.690000
     14 C3          -1.9490     0.8580    -0.3660 c6         1 KO2       0.150300
     15 O3          -2.3480     1.8810     0.5660 oh         1 KO2      -0.667000
     16 O2          -1.0400    -1.4160    -0.6810 os         1 KO2      -0.496000
     17 C11          0.9930    -3.4770    -2.2380 c2         1 KO2      -0.357000
     18 C10         -0.1360    -3.4540    -1.5100 c2         1 KO2      -0.185200
     19 C9          -0.3670    -2.6220    -0.2670 c3         1 KO2       0.201800
     20 O1A         -2.8730    -1.8060     1.3710 o          1 KO2      -0.690500
     21 H6           1.0970    -0.2640    -1.0380 h1         1 KO2       0.024700
     22 H7           2.3160     1.5430     1.0900 h1         1 KO2       0.116700
     23 H8           2.3460    -0.7260     1.9380 h1         1 KO2       0.034200
     24 H8A          2.9280    -1.3690     0.3910 h1         1 KO2       0.034200
     25 HO8          4.6200    -1.0490     2.0050 ho         1 KO2       0.429000
     26 HO7          4.2480     0.8600    -0.2510 ho         1 KO2       0.481000
     27 H5           1.0280     2.0170    -1.8580 h1         1 KO2       0.021700
     28 HO5         -0.2440     3.5540    -0.5490 ho         1 KO2       0.500000
     29 H4          -0.9630     0.7950    -2.2950 h1         1 KO2       0.046700
     30 HO4         -2.1520     2.5150    -2.7630 ho         1 KO2       0.443000
     31 H3          -2.8470     0.4640    -0.8670 h1         1 KO2       0.052700
     32 HO3         -2.3650     2.6970     0.0140 ho         1 KO2       0.484000
     33 H11          1.8580    -2.8680    -1.9720 ha         1 KO2       0.149000
     34 H11A         1.0860    -4.1030    -3.1270 ha         1 KO2       0.149000
     35 H10         -0.9940    -4.0670    -1.7930 ha         1 KO2       0.171000
     36 H9           0.5980    -2.3970     0.2060 h1         1 KO2       0.044700
     37 H9A         -0.9680    -3.1930     0.4510 h1         1 KO2       0.044700
@<TRIPOS>BOND
     1     1     2 1   
     2     1     3 1   
     3     1    20 1   
     4     3     4 1   
     5     3    14 1   
     6     3    16 1   
     7     4     5 1   
     8     5     6 1   
     9     5    10 1   
    10     5    21 1   
    11     6     7 1   
    12     6     9 1   
    13     6    22 1   
    14     7     8 1   
    15     7    23 1   
    16     7    24 1   
    17     8    25 1   
    18     9    26 1   
    19    10    11 1   
    20    10    12 1   
    21    10    27 1   
    22    11    28 1   
    23    12    13 1   
    24    12    14 1   
    25    12    29 1   
    26    13    30 1   
    27    14    15 1   
    28    14    31 1   
    29    15    32 1   
    30    16    19 1   
    31    17    18 2   
    32    17    33 1   
    33    17    34 1   
    34    18    19 1   
    35    18    35 1   
    36    19    36 1   
    37    19    37 1   
@<TRIPOS>SUBSTRUCTURE
     1 KO2         1 TEMP              0 ****  ****    0 ROOT
