@<TRIPOS>MOLECULE
KO5
   72    75     1     0     0
SMALL
No Charge or Current Charge


@<TRIPOS>ATOM
      1 C4           8.1880    -0.6360    -0.2190 c3         1 KO5       0.204800
      2 C14         -0.4180    -1.6760     0.0780 ca         1 KO5      -0.182600
      3 C5           9.1430     0.5700    -0.4100 c3         1 KO5      -0.067400
      4 C6          10.6160     0.1450    -0.6390 c3         1 KO5      -0.203400
      5 C11          3.8570    -3.4940     0.1820 ca         1 KO5      -0.144000
      6 C7          11.5050     1.3890    -0.8170 c          1 KO5       0.716000
      7 C8           5.7770    -1.4050     0.0880 ca         1 KO5       0.262000
      8 C9           6.1790    -2.7570     0.1580 ca         1 KO5      -0.172000
      9 C10          5.2280    -3.7880     0.2070 ca         1 KO5      -0.125000
     10 C12          3.4190    -2.1540     0.1190 ca         1 KO5      -0.068000
     11 C13          0.8580    -2.5000     0.1300 c          1 KO5       0.620700
     12 N1           6.7400    -0.3490    -0.0100 nh         1 KO5      -0.787400
     13 C3           6.2330     1.0500    -0.1940 c6         1 KO5       0.174800
     14 C1           4.8400     1.2430     0.4480 c6         1 KO5       0.015300
     15 C15         -0.4030    -0.2610    -0.0090 ca         1 KO5      -0.033500
     16 C16         -1.6080     0.4610    -0.0550 ca         1 KO5      -0.190000
     17 C17         -2.8420    -0.2010    -0.0150 ca         1 KO5       0.141100
     18 C18         -5.3010    -0.0170    -0.0280 c3         1 KO5       0.168600
     19 C19         -6.3250     1.1320    -0.1000 c3         1 KO5      -0.082400
     20 C2           4.3160     2.6860     0.1610 c          1 KO5       0.732000
     21 C20         -7.7880     0.6370    -0.0680 c3         1 KO5      -0.073400
     22 C21         -8.8190     1.7840    -0.1410 c3         1 KO5      -0.036100
     23 C22        -10.2580     1.2700    -0.0950 ca         1 KO5      -0.045300
     24 C23        -10.8830     0.9190    -1.3090 ca         1 KO5      -0.147000
     25 C24        -12.2000     0.4370    -1.3190 ca         1 KO5       0.163000
     26 C25        -12.9100     0.2980    -0.1210 ca         1 KO5      -0.155000
     27 C26        -12.2990     0.6420     1.0960 ca         1 KO5      -0.088000
     28 C27        -10.9740     1.1260     1.1220 ca         1 KO5      -0.085300
     29 C28         -2.8700    -1.6070     0.0710 ca         1 KO5      -0.190000
     30 C29         -1.6690    -2.3350     0.1170 ca         1 KO5      -0.033500
     31 C30          4.3790    -1.1180     0.0850 ca         1 KO5       0.064100
     32 C31        -10.3490     1.4840     2.4690 c3         1 KO5      -0.045800
     33 F1         -12.7850     0.1060    -2.4900 f          1 KO5      -0.186000
     34 O1           3.4220     2.7960    -0.6700 o          1 KO5      -0.716000
     35 O2           4.3520     3.4570     1.1120 o          1 KO5      -0.716000
     36 O3          11.6440     1.8430    -1.9430 o          1 KO5      -0.746000
     37 O4          11.9910     1.8980     0.1810 o          1 KO5      -0.746000
     38 O5           0.8140    -3.7250     0.2000 o          1 KO5      -0.625100
     39 O6          -3.9870     0.5660    -0.0630 os         1 KO5      -0.349100
     40 O7           3.9250     0.1890     0.0380 os         1 KO5      -0.332100
     41 H1           8.2880    -1.2780    -1.1040 h1         1 KO5       0.017700
     42 H2           8.5560    -1.2080     0.6430 h1         1 KO5       0.017700
     43 H3           8.8090     1.1660    -1.2680 hc         1 KO5       0.055700
     44 H4           9.0950     1.2130     0.4770 hc         1 KO5       0.055700
     45 H5          10.9090    -0.4130     0.2590 hc         1 KO5       0.010700
     46 H6          10.6140    -0.4610    -1.5540 hc         1 KO5       0.010700
     47 H7           3.1560    -4.3210     0.2150 ha         1 KO5       0.116000
     48 H8           7.2300    -3.0280     0.1690 ha         1 KO5       0.108000
     49 H9           5.5570    -4.8240     0.2580 ha         1 KO5       0.088000
     50 H10          1.9150    -0.7760     0.0400 hn         1 KO5       0.175000
     51 H11          6.9090     1.7820     0.2720 h1         1 KO5       0.067700
     52 H12          6.1730     1.2930    -1.2660 h1         1 KO5       0.067700
     53 H13          4.9640     1.1600     1.5370 h1         1 KO5       0.041700
     54 H14          0.5300     0.2990    -0.0440 ha         1 KO5       0.148500
     55 H15         -1.5830     1.5450    -0.1220 ha         1 KO5       0.119000
     56 H16         -5.4490    -0.5830     0.9010 h1         1 KO5       0.030700
     57 H17         -5.4480    -0.6930    -0.8810 h1         1 KO5       0.030700
     58 H18         -6.1550     1.8140     0.7430 hc         1 KO5       0.055700
     59 H19         -6.1550     1.7050    -1.0200 hc         1 KO5       0.055700
     60 H20         -7.9550    -0.0480    -0.9090 hc         1 KO5       0.042700
     61 H21         -7.9530     0.0590     0.8490 hc         1 KO5       0.042700
     62 H22         -8.6280     2.4990     0.6690 hc         1 KO5       0.051200
     63 H23         -8.6560     2.3460    -1.0690 hc         1 KO5       0.051200
     64 H24        -10.3470     1.0170    -2.2500 ha         1 KO5       0.131000
     65 H25        -13.9310    -0.0750    -0.1350 ha         1 KO5       0.126000
     66 H26        -12.8590     0.5300     2.0220 ha         1 KO5       0.111000
     67 H27         -3.8090    -2.1520     0.1040 ha         1 KO5       0.119000
     68 H28         -1.7160    -3.4210     0.1840 ha         1 KO5       0.148500
     69 H29        -10.1710     2.5630     2.5450 hc         1 KO5       0.044367
     70 H30        -10.9960     1.2010     3.3070 hc         1 KO5       0.044367
     71 H31         -9.3910     0.9710     2.6140 hc         1 KO5       0.044367
     72 N2           2.0450    -1.7770     0.0950 ns         1 KO5      -0.120000
@<TRIPOS>BOND
     1     1     3 1   
     2     1    12 1   
     3     1    41 1   
     4     1    42 1   
     5     2    11 1   
     6     2    15 ar  
     7     2    30 ar  
     8     3     4 1   
     9     3    43 1   
    10     3    44 1   
    11     4     6 1   
    12     4    45 1   
    13     4    46 1   
    14     5     9 ar  
    15     5    10 ar  
    16     5    47 1   
    17     6    36 1   
    18     6    37 1   
    19     7     8 ar  
    20     7    12 1   
    21     7    31 ar  
    22     8     9 ar  
    23     8    48 1   
    24     9    49 1   
    25    10    31 ar  
    26    10    72 1   
    27    11    38 2   
    28    11    72 1   
    29    12    13 1   
    30    13    14 1   
    31    13    51 1   
    32    13    52 1   
    33    14    20 1   
    34    14    40 1   
    35    14    53 1   
    36    15    16 ar  
    37    15    54 1   
    38    16    17 ar  
    39    16    55 1   
    40    17    29 ar  
    41    17    39 1   
    42    18    19 1   
    43    18    39 1   
    44    18    56 1   
    45    18    57 1   
    46    19    21 1   
    47    19    58 1   
    48    19    59 1   
    49    20    34 1   
    50    20    35 1   
    51    21    22 1   
    52    21    60 1   
    53    21    61 1   
    54    22    23 1   
    55    22    62 1   
    56    22    63 1   
    57    23    24 ar  
    58    23    28 ar  
    59    24    25 ar  
    60    24    64 1   
    61    25    26 ar  
    62    25    33 1   
    63    26    27 ar  
    64    26    65 1   
    65    27    28 ar  
    66    27    66 1   
    67    28    32 1   
    68    29    30 ar  
    69    29    67 1   
    70    30    68 1   
    71    31    40 1   
    72    32    69 1   
    73    32    70 1   
    74    32    71 1   
    75    50    72 1   
@<TRIPOS>SUBSTRUCTURE
     1 KO5         1 TEMP              0 ****  ****    0 ROOT
