@<TRIPOS>MOLECULE
KO5
   72    75     1     0     0
SMALL
bcc


@<TRIPOS>ATOM
      1 C4           7.8670    -0.6430    -0.2770 c3         1 KO5       0.204800
      2 C14         -0.3760    -1.3890    -0.1650 ca         1 KO5      -0.182600
      3 C5           8.8380     0.5260    -0.1880 c3         1 KO5      -0.067400
      4 C6          10.2690     0.0310    -0.3310 c3         1 KO5      -0.203400
      5 C11          3.6550    -3.4170     0.3920 ca         1 KO5      -0.162000
      6 C7          11.3580     1.1170    -0.3370 c          1 KO5       0.926600
      7 C8           5.5930    -1.3660     0.1730 ca         1 KO5       0.123600
      8 C9           5.9600    -2.7170     0.1880 ca         1 KO5      -0.190000
      9 C10          5.0050    -3.7160     0.3080 ca         1 KO5      -0.143000
     10 C12          3.2650    -2.0820     0.3510 ca         1 KO5       0.024600
     11 C13          0.8570    -2.2240    -0.1690 c          1 KO5       0.687700
     12 N1           6.4970    -0.3200     0.0750 nh         1 KO5      -0.649000
     13 C3           5.9370     0.9150    -0.4360 c6         1 KO5       0.174800
     14 C1           4.6700     1.2490     0.3270 c6         1 KO5      -0.007900
     15 C15         -0.3560     0.0090    -0.1810 ca         1 KO5      -0.051500
     16 C16         -1.5320     0.7320    -0.2070 ca         1 KO5      -0.208000
     17 C17         -2.7670     0.0750    -0.2120 ca         1 KO5       0.141100
     18 C18         -5.1380     0.2380    -0.2180 c3         1 KO5       0.145400
     19 C19         -6.1950     1.3200    -0.2180 c3         1 KO5      -0.082400
     20 C2           4.0060     2.5530    -0.1630 c          1 KO5       0.942600
     21 C20         -7.5900     0.7090    -0.1560 c3         1 KO5      -0.073400
     22 C21         -8.6920     1.7690    -0.1500 c3         1 KO5      -0.036100
     23 C22        -10.0600     1.1610    -0.0050 ca         1 KO5      -0.045300
     24 C23        -10.7850     0.8510    -1.1520 ca         1 KO5      -0.165000
     25 C24        -12.0260     0.2550    -1.0410 ca         1 KO5       0.127900
     26 C25        -12.5840    -0.0460     0.1830 ca         1 KO5      -0.173000
     27 C26        -11.8550     0.2680     1.3220 ca         1 KO5      -0.106000
     28 C27        -10.5990     0.8640     1.2560 ca         1 KO5      -0.085300
     29 C28         -2.7970    -1.3190    -0.2070 ca         1 KO5      -0.208000
     30 C29         -1.6090    -2.0310    -0.1950 ca         1 KO5      -0.051500
     31 C30          4.2210    -1.0710     0.2450 ca         1 KO5       0.064100
     32 C31         -9.8480     1.1720     2.5210 c3         1 KO5      -0.045800
     33 F1         -12.7100    -0.0340    -2.1640 f          1 KO5      -0.150900
     34 O1           2.7950     2.5220    -0.4290 o          1 KO5      -0.821300
     35 O2           4.7780     3.5290    -0.2180 o          1 KO5      -0.821300
     36 O3          12.5280     0.7120    -0.5060 o          1 KO5      -0.851300
     37 O4          11.0040     2.3000    -0.1690 o          1 KO5      -0.851300
     38 O5           0.8720    -3.3400    -0.6640 o          1 KO5      -0.625100
     39 O6          -3.8580     0.8540    -0.2270 os         1 KO5      -0.325900
     40 O7           3.7380     0.1880     0.2090 os         1 KO5      -0.308900
     41 H1           7.9230    -1.0870    -1.2830 h1         1 KO5       0.017700
     42 H2           8.2170    -1.4110     0.4160 h1         1 KO5       0.017700
     43 H3           8.6330     1.2660    -0.9640 hc         1 KO5       0.055700
     44 H4           8.7100     1.0330     0.7720 hc         1 KO5       0.055700
     45 H5          10.4940    -0.6730     0.4780 hc         1 KO5       0.010700
     46 H6          10.3650    -0.5600    -1.2490 hc         1 KO5       0.010700
     47 H7           2.9240    -4.2030     0.4930 ha         1 KO5       0.134000
     48 H8           6.9990    -3.0020     0.1040 ha         1 KO5       0.126000
     49 H9           5.3240    -4.7500     0.3270 ha         1 KO5       0.106000
     50 H10          1.8050    -0.7310     0.8120 hn         1 KO5       0.341500
     51 H11          6.6410     1.7280    -0.2840 h1         1 KO5       0.067700
     52 H12          5.7270     0.8560    -1.5140 h1         1 KO5       0.067700
     53 H13          4.9340     1.3740     1.3870 h1         1 KO5       0.041700
     54 H14          0.5780     0.5630    -0.2070 ha         1 KO5       0.166500
     55 H15         -1.5040     1.8140    -0.2320 ha         1 KO5       0.137000
     56 H16         -5.2450    -0.3950     0.6700 h1         1 KO5       0.030700
     57 H17         -5.2530    -0.4060    -1.0980 h1         1 KO5       0.030700
     58 H18         -6.0460     1.9790     0.6420 hc         1 KO5       0.055700
     59 H19         -6.0980     1.9360    -1.1160 hc         1 KO5       0.055700
     60 H20         -7.7420     0.0400    -1.0090 hc         1 KO5       0.042700
     61 H21         -7.6740     0.0840     0.7380 hc         1 KO5       0.042700
     62 H22         -8.5070     2.4800     0.6590 hc         1 KO5       0.051200
     63 H23         -8.6420     2.3410    -1.0800 hc         1 KO5       0.051200
     64 H24        -10.3800     1.0770    -2.1310 ha         1 KO5       0.149000
     65 H25        -13.5580    -0.5120     0.2510 ha         1 KO5       0.144000
     66 H26        -12.2820     0.0420     2.2920 ha         1 KO5       0.129000
     67 H27         -3.7290    -1.8670    -0.2140 ha         1 KO5       0.137000
     68 H28         -1.6510    -3.1120    -0.1980 ha         1 KO5       0.166500
     69 H29         -9.5710     2.2250     2.5860 hc         1 KO5       0.044367
     70 H30        -10.4490     0.9350     3.3980 hc         1 KO5       0.044367
     71 H31         -8.9250     0.5950     2.5930 hc         1 KO5       0.044367
     72 N2           1.9310    -1.6540     0.4270 ns         1 KO5      -0.446100
@<TRIPOS>BOND
     1     1     3 1   
     2     1    12 1   
     3     1    41 1   
     4     1    42 1   
     5     2    11 1   
     6     2    15 ar  
     7     2    30 ar  
     8     3     4 1   
     9     3    43 1   
    10     3    44 1   
    11     4     6 1   
    12     4    45 1   
    13     4    46 1   
    14     5     9 ar  
    15     5    10 ar  
    16     5    47 1   
    17     6    36 1   
    18     6    37 1   
    19     7     8 ar  
    20     7    12 1   
    21     7    31 ar  
    22     8     9 ar  
    23     8    48 1   
    24     9    49 1   
    25    10    31 ar  
    26    10    72 1   
    27    11    38 2   
    28    11    72 1   
    29    12    13 1   
    30    13    14 1   
    31    13    51 1   
    32    13    52 1   
    33    14    20 1   
    34    14    40 1   
    35    14    53 1   
    36    15    16 ar  
    37    15    54 1   
    38    16    17 ar  
    39    16    55 1   
    40    17    29 ar  
    41    17    39 1   
    42    18    19 1   
    43    18    39 1   
    44    18    56 1   
    45    18    57 1   
    46    19    21 1   
    47    19    58 1   
    48    19    59 1   
    49    20    34 1   
    50    20    35 1   
    51    21    22 1   
    52    21    60 1   
    53    21    61 1   
    54    22    23 1   
    55    22    62 1   
    56    22    63 1   
    57    23    24 ar  
    58    23    28 ar  
    59    24    25 ar  
    60    24    64 1   
    61    25    26 ar  
    62    25    33 1   
    63    26    27 ar  
    64    26    65 1   
    65    27    28 ar  
    66    27    66 1   
    67    28    32 1   
    68    29    30 ar  
    69    29    67 1   
    70    30    68 1   
    71    31    40 1   
    72    32    69 1   
    73    32    70 1   
    74    32    71 1   
    75    50    72 1   
@<TRIPOS>SUBSTRUCTURE
     1 KO5         1 TEMP              0 ****  ****    0 ROOT
