@<TRIPOS>MOLECULE
KO8
   64    67     1     0     0
SMALL
No Charge or Current Charge


@<TRIPOS>ATOM
      1 C8         131.3120   121.6730   167.5400 cp         1 KO8       0.409500
      2 C9         126.8640   117.8560   171.5470 c5         1 KO8       0.007000
      3 C1         128.6580   121.6820   170.3280 ca         1 KO8      -0.103000
      4 N1         126.9270   119.3070   171.8360 n          1 KO8      -0.429800
      5 C2         128.9530   120.4920   171.0170 ca         1 KO8      -0.092300
      6 N2         124.8420   118.9030   171.1600 n          1 KO8      -0.383400
      7 C3         130.0110   119.6830   170.5670 ca         1 KO8      -0.103000
      8 N3         131.9580   120.6820   166.8790 nb         1 KO8      -0.679000
      9 O3         137.2390   119.3860   168.8460 os         1 KO8      -0.450000
     10 C4         130.7690   120.0630   169.4460 ca         1 KO8      -0.078500
     11 N4         134.0950   118.8570   166.0530 n7         1 KO8      -0.859400
     12 C5         130.4950   121.2660   168.7390 cp         1 KO8      -0.143500
     13 C6         129.4160   122.0630   169.2080 ca         1 KO8      -0.078500
     14 C10        125.3970   117.6260   171.1110 c          1 KO8       0.557000
     15 C11        125.6950   119.8990   171.5990 c          1 KO8       0.614000
     16 C12        123.4180   119.1540   170.8580 c3         1 KO8       0.118000
     17 C13        123.1280   119.3870   169.3520 c3         1 KO8      -0.081700
     18 C14        121.6100   119.5130   169.0950 c3         1 KO8      -0.087600
     19 C15        123.8920   120.6000   168.7710 c3         1 KO8      -0.087600
     20 C16        131.4290   123.0250   167.1210 ca         1 KO8      -0.132000
     21 C17        132.2130   123.3530   166.0000 ca         1 KO8      -0.111000
     22 C18        132.8720   122.3160   165.3260 ca         1 KO8       0.116000
     23 C19        132.7270   120.9900   165.7970 ca         1 KO8       0.294300
     24 C20        133.4390   119.8100   165.1080 c3         1 KO8       0.125500
     25 C21        135.4320   119.1850   166.5890 c6         1 KO8       0.178500
     26 C22        135.4070   120.3900   167.5660 c6         1 KO8      -0.128900
     27 C23        136.7990   120.6020   168.2060 c6         1 KO8       0.156100
     28 C24        137.3840   118.2720   167.9410 c6         1 KO8       0.156100
     29 C25        136.0180   117.9410   167.2990 c6         1 KO8      -0.128900
     30 F1         133.6380   122.6010   164.2470 f          1 KO8      -0.169000
     31 H1         127.0770   117.2480   172.4350 h1         1 KO8       0.081200
     32 H2         127.5330   117.5710   170.7250 h1         1 KO8       0.081200
     33 H3         127.8340   122.3110   170.6570 ha         1 KO8       0.114000
     34 H4         130.2470   118.7560   171.0840 ha         1 KO8       0.114000
     35 H5         131.5850   119.4170   169.1290 ha         1 KO8       0.122000
     36 H6         133.4450   118.7260   166.8400 hn         1 KO8       0.436000
     37 H8         129.1440   122.9810   168.6930 ha         1 KO8       0.122000
     38 H9         128.7340   119.4580   172.8920 h1         1 KO8       0.063700
     39 H10        127.8190   120.9650   172.7870 h1         1 KO8       0.063700
     40 H11        123.0750   120.0260   171.4300 h1         1 KO8       0.065700
     41 H12        122.8290   118.2940   171.2070 h1         1 KO8       0.065700
     42 H13        123.4720   118.4950   168.8110 hc         1 KO8       0.058700
     43 H14        121.0790   118.6230   169.4560 hc         1 KO8       0.036700
     44 H15        121.1980   120.3900   169.6080 hc         1 KO8       0.036700
     45 H16        121.4040   119.6140   168.0220 hc         1 KO8       0.036700
     46 H17        124.9770   120.4550   168.8440 hc         1 KO8       0.036700
     47 H18        123.6480   120.7410   167.7110 hc         1 KO8       0.036700
     48 H19        123.6300   121.5200   169.3070 hc         1 KO8       0.036700
     49 H20        130.9290   123.8170   167.6690 ha         1 KO8       0.130000
     50 H21        132.3130   124.3840   165.6680 ha         1 KO8       0.139000
     51 H22        134.1690   120.1860   164.3780 h1         1 KO8       0.068700
     52 H23        132.6720   119.2770   164.5280 h1         1 KO8       0.068700
     53 H24        136.0980   119.4350   165.7470 h1         1 KO8       0.052700
     54 H25        135.1190   121.3090   167.0400 hc         1 KO8       0.054200
     55 H26        134.6620   120.2260   168.3570 hc         1 KO8       0.054200
     56 H27        137.5310   120.8950   167.4390 h1         1 KO8       0.043450
     57 H28        136.7500   121.4040   168.9560 h1         1 KO8       0.043450
     58 H29        137.7570   117.4020   168.5010 h1         1 KO8       0.043450
     59 H30        138.1220   118.5240   167.1660 h1         1 KO8       0.043450
     60 H31        135.3280   117.5860   168.0770 hc         1 KO8       0.054200
     61 H32        136.1370   117.1180   166.5820 hc         1 KO8       0.054200
     62 C7         128.1210   120.0740   172.2210 c3         1 KO8       0.177300
     63 O1         125.4200   121.0780   171.7520 o          1 KO8      -0.535000
     64 O2         124.8200   116.5940   170.7930 o          1 KO8      -0.504000
@<TRIPOS>BOND
     1     1     8 ar  
     2     1    12 1   
     3     1    20 ar  
     4     2     4 1   
     5     2    14 1   
     6     2    31 1   
     7     2    32 1   
     8     3     5 ar  
     9     3    13 ar  
    10     3    33 1   
    11     4    15 1   
    12     4    62 1   
    13     5     7 ar  
    14     5    62 1   
    15     6    14 1   
    16     6    15 1   
    17     6    16 1   
    18     7    10 ar  
    19     7    34 1   
    20     8    23 ar  
    21     9    27 1   
    22     9    28 1   
    23    10    12 ar  
    24    10    35 1   
    25    11    24 1   
    26    11    25 1   
    27    11    36 1   
    28    12    13 ar  
    29    13    37 1   
    30    14    64 2   
    31    15    63 2   
    32    16    17 1   
    33    16    40 1   
    34    16    41 1   
    35    17    18 1   
    36    17    19 1   
    37    17    42 1   
    38    18    43 1   
    39    18    44 1   
    40    18    45 1   
    41    19    46 1   
    42    19    47 1   
    43    19    48 1   
    44    20    21 ar  
    45    20    49 1   
    46    21    22 ar  
    47    21    50 1   
    48    22    23 ar  
    49    22    30 1   
    50    23    24 1   
    51    24    51 1   
    52    24    52 1   
    53    25    26 1   
    54    25    29 1   
    55    25    53 1   
    56    26    27 1   
    57    26    54 1   
    58    26    55 1   
    59    27    56 1   
    60    27    57 1   
    61    28    29 1   
    62    28    58 1   
    63    28    59 1   
    64    29    60 1   
    65    29    61 1   
    66    38    62 1   
    67    39    62 1   
@<TRIPOS>SUBSTRUCTURE
     1 KO8         1 TEMP              0 ****  ****    0 ROOT
