@<TRIPOS>MOLECULE
KO8
   64    67     1     0     0
SMALL
abcg2


@<TRIPOS>ATOM
      1 C8         131.5770   122.8810   168.1940 cp         1 KO8       0.409500
      2 C9         127.2610   118.8810   172.6660 c5         1 KO8       0.007000
      3 C1         129.0970   123.0790   171.0440 ca         1 KO8      -0.103000
      4 N1         127.0660   120.1700   172.0570 n          1 KO8      -0.429800
      5 C2         128.8010   121.7390   171.2670 ca         1 KO8      -0.092300
      6 N2         125.6730   118.8160   170.9960 n          1 KO8      -0.383400
      7 C3         129.4350   120.7840   170.4790 ca         1 KO8      -0.103000
      8 N3         131.7960   121.9680   167.2500 nb         1 KO8      -0.679000
      9 O3         134.8040   117.5730   168.5060 os         1 KO8      -0.450000
     10 C4         130.3320   121.1590   169.4940 ca         1 KO8      -0.078500
     11 N4         132.5370   119.7690   165.6620 n7         1 KO8      -0.859400
     12 C5         130.6330   122.5030   169.2680 cp         1 KO8      -0.143500
     13 C6         130.0000   123.4580   170.0630 ca         1 KO8      -0.078500
     14 C10        126.2920   118.0080   171.9030 c          1 KO8       0.557000
     15 C11        126.1370   120.1330   171.0790 c          1 KO8       0.614000
     16 C12        124.6820   118.3680   170.0400 c3         1 KO8       0.118000
     17 C13        125.2760   117.6620   168.8210 c3         1 KO8      -0.081700
     18 C14        124.1350   117.2080   167.9160 c3         1 KO8      -0.087600
     19 C15        126.2560   118.5470   168.0600 c3         1 KO8      -0.087600
     20 C16        132.2190   124.1180   168.1600 ca         1 KO8      -0.132000
     21 C17        133.0640   124.4050   167.1010 ca         1 KO8      -0.111000
     22 C18        133.2430   123.4380   166.1370 ca         1 KO8       0.116000
     23 C19        132.6170   122.2040   166.2430 ca         1 KO8       0.294300
     24 C20        132.8020   121.1110   165.2080 c3         1 KO8       0.125500
     25 C21        133.6360   119.0900   166.3280 c6         1 KO8       0.178500
     26 C22        134.1880   119.7460   167.5980 c6         1 KO8      -0.128900
     27 C23        135.2700   118.8730   168.2180 c6         1 KO8       0.156100
     28 C24        134.3490   116.9120   167.3480 c6         1 KO8       0.156100
     29 C25        133.2170   117.6620   166.6640 c6         1 KO8      -0.128900
     30 F1         134.0360   123.6840   165.0840 f          1 KO8      -0.169000
     31 H1         127.0180   118.8810   173.7320 h1         1 KO8       0.081200
     32 H2         128.2820   118.5060   172.5510 h1         1 KO8       0.081200
     33 H3         128.6030   123.8430   171.6340 ha         1 KO8       0.114000
     34 H4         129.2290   119.7290   170.6200 ha         1 KO8       0.114000
     35 H5         130.8080   120.3970   168.8910 ha         1 KO8       0.122000
     36 H6         131.7160   119.7640   166.2570 hn         1 KO8       0.436000
     37 H8         130.1770   124.5140   169.9050 ha         1 KO8       0.122000
     38 H9         128.3700   121.1630   173.2850 h1         1 KO8       0.063700
     39 H10        127.1550   122.1880   172.5610 h1         1 KO8       0.063700
     40 H11        124.1130   119.2430   169.7240 h1         1 KO8       0.065700
     41 H12        123.9890   117.7030   170.5570 h1         1 KO8       0.065700
     42 H13        125.8100   116.7720   169.1700 hc         1 KO8       0.058700
     43 H14        123.4360   116.5570   168.4430 hc         1 KO8       0.036700
     44 H15        123.5730   118.0650   167.5360 hc         1 KO8       0.036700
     45 H16        124.5170   116.6560   167.0560 hc         1 KO8       0.036700
     46 H17        127.1210   118.8240   168.6640 hc         1 KO8       0.036700
     47 H18        126.6320   118.0250   167.1790 hc         1 KO8       0.036700
     48 H19        125.7730   119.4660   167.7220 hc         1 KO8       0.036700
     49 H20        132.0800   124.8490   168.9430 ha         1 KO8       0.130000
     50 H21        133.5770   125.3560   167.0350 ha         1 KO8       0.139000
     51 H22        133.8140   121.1510   164.7990 h1         1 KO8       0.068700
     52 H23        132.1370   121.3460   164.3680 h1         1 KO8       0.068700
     53 H24        134.4600   119.0330   165.6030 h1         1 KO8       0.052700
     54 H25        134.6180   120.7280   167.3840 hc         1 KO8       0.054200
     55 H26        133.3770   119.8970   168.3180 hc         1 KO8       0.054200
     56 H27        136.1350   118.8270   167.5390 h1         1 KO8       0.043450
     57 H28        135.6190   119.3020   169.1580 h1         1 KO8       0.043450
     58 H29        134.0230   115.9170   167.6550 h1         1 KO8       0.043450
     59 H30        135.1760   116.7800   166.6340 h1         1 KO8       0.043450
     60 H31        132.3380   117.6840   167.3200 hc         1 KO8       0.054200
     61 H32        132.9280   117.1290   165.7550 hc         1 KO8       0.054200
     62 C7         127.8290   121.3540   172.3560 c3         1 KO8       0.177300
     63 O1         125.7570   121.0550   170.3920 o          1 KO8      -0.535000
     64 O2         126.0920   116.8270   172.0630 o          1 KO8      -0.504000
@<TRIPOS>BOND
     1     1     8 ar  
     2     1    12 1   
     3     1    20 ar  
     4     2     4 1   
     5     2    14 1   
     6     2    31 1   
     7     2    32 1   
     8     3     5 ar  
     9     3    13 ar  
    10     3    33 1   
    11     4    15 1   
    12     4    62 1   
    13     5     7 ar  
    14     5    62 1   
    15     6    14 1   
    16     6    15 1   
    17     6    16 1   
    18     7    10 ar  
    19     7    34 1   
    20     8    23 ar  
    21     9    27 1   
    22     9    28 1   
    23    10    12 ar  
    24    10    35 1   
    25    11    24 1   
    26    11    25 1   
    27    11    36 1   
    28    12    13 ar  
    29    13    37 1   
    30    14    64 2   
    31    15    63 2   
    32    16    17 1   
    33    16    40 1   
    34    16    41 1   
    35    17    18 1   
    36    17    19 1   
    37    17    42 1   
    38    18    43 1   
    39    18    44 1   
    40    18    45 1   
    41    19    46 1   
    42    19    47 1   
    43    19    48 1   
    44    20    21 ar  
    45    20    49 1   
    46    21    22 ar  
    47    21    50 1   
    48    22    23 ar  
    49    22    30 1   
    50    23    24 1   
    51    24    51 1   
    52    24    52 1   
    53    25    26 1   
    54    25    29 1   
    55    25    53 1   
    56    26    27 1   
    57    26    54 1   
    58    26    55 1   
    59    27    56 1   
    60    27    57 1   
    61    28    29 1   
    62    28    58 1   
    63    28    59 1   
    64    29    60 1   
    65    29    61 1   
    66    38    62 1   
    67    39    62 1   
@<TRIPOS>SUBSTRUCTURE
     1 KO8         1 TEMP              0 ****  ****    0 ROOT
