@<TRIPOS>MOLECULE
KO9
   28    29     1     0     0
SMALL
No Charge or Current Charge


@<TRIPOS>ATOM
      1 N1           9.5060    -0.1500    21.9760 ns         1 KO9      -0.150000
      2 N3          15.3730     0.7260    20.8710 n1         1 KO9      -0.435000
      3 C4           5.8970     1.0990    17.8900 ca         1 KO9      -0.160000
      4 C5           5.6730    -0.2760    17.7080 ca         1 KO9       0.341900
      5 C6           6.5310    -0.7650    19.8040 ca         1 KO9       0.346900
      6 C7          10.8540    -0.5900    22.1340 ca         1 KO9      -0.071000
      7 C8          11.0890    -1.7730    22.8700 ca         1 KO9       0.300900
      8 C10         13.2560    -0.4470    21.8200 ca         1 KO9      -0.039000
      9 C11         14.4260     0.1950    21.2990 cg         1 KO9       0.323000
     10 C9          13.3830    -1.6310    22.5670 ca         1 KO9       0.342900
     11 N2          12.3200    -2.2910    23.0880 nb         1 KO9      -0.638000
     12 C12         11.9720     0.0880    21.5960 ca         1 KO9      -0.067000
     13 C            8.9540     0.9520    21.3330 c          1 KO9       0.603100
     14 O            9.6090     1.8030    20.7430 o          1 KO9      -0.560100
     15 C1           7.4210     1.0250    21.4010 c3         1 KO9      -0.101100
     16 C2           6.7910     0.5960    20.0750 ca         1 KO9      -0.134300
     17 N            5.9830    -1.2010    18.6460 nb         1 KO9      -0.662000
     18 C3           6.4670     1.5480    19.0910 ca         1 KO9      -0.045000
     19 H1           8.8240    -0.7560    22.4140 hn         1 KO9       0.155000
     20 H2           5.6320     1.8000    17.1040 ha         1 KO9       0.127000
     21 H3           5.2320    -0.6490    16.7840 h4         1 KO9       0.022100
     22 H4           6.7720    -1.5330    20.5390 h4         1 KO9       0.015100
     23 H5          10.2570    -2.3280    23.3020 h4         1 KO9       0.019100
     24 H6          14.3620    -2.0700    22.7570 h4         1 KO9       0.037100
     25 H7          11.8700     1.0020    21.0180 ha         1 KO9       0.168000
     26 H8           7.1330     2.0590    21.6270 hc         1 KO9       0.069200
     27 H9           7.0540     0.3700    22.2000 hc         1 KO9       0.069200
     28 H10          6.6530     2.6090    19.2520 ha         1 KO9       0.122000
@<TRIPOS>BOND
     1     1     6 1   
     2     1    13 1   
     3     1    19 1   
     4     2     9 3   
     5     3     4 ar  
     6     3    18 ar  
     7     3    20 1   
     8     4    17 ar  
     9     4    21 1   
    10     5    16 ar  
    11     5    17 ar  
    12     5    22 1   
    13     6     7 ar  
    14     6    12 ar  
    15     7    11 ar  
    16     7    23 1   
    17     8     9 1   
    18     8    10 ar  
    19     8    12 ar  
    20    10    11 ar  
    21    10    24 1   
    22    12    25 1   
    23    13    14 2   
    24    13    15 1   
    25    15    16 1   
    26    15    26 1   
    27    15    27 1   
    28    16    18 ar  
    29    18    28 1   
@<TRIPOS>SUBSTRUCTURE
     1 KO9         1 TEMP              0 ****  ****    0 ROOT
