@<TRIPOS>MOLECULE
KO9
   28    29     1     0     0
SMALL
abcg2


@<TRIPOS>ATOM
      1 N1           9.5750    -0.5050    22.1130 ns         1 KO9      -0.150000
      2 N3          15.1770     0.4430    20.3310 n1         1 KO9      -0.435000
      3 C4           5.9420     1.6980    18.0820 ca         1 KO9      -0.160000
      4 C5           5.4600     0.5550    17.4540 ca         1 KO9       0.341900
      5 C6           6.2030    -0.7810    19.1520 ca         1 KO9       0.346900
      6 C7          10.9430    -0.6140    22.3550 ca         1 KO9      -0.071000
      7 C8          11.3450    -1.2180    23.5560 ca         1 KO9       0.300900
      8 C10         13.2650    -0.3490    21.8710 ca         1 KO9      -0.039000
      9 C11         14.3210     0.0900    21.0170 cg         1 KO9       0.323000
     10 C9          13.5680    -0.9640    23.0870 ca         1 KO9       0.342900
     11 N2          12.6140    -1.3880    23.9120 nb         1 KO9      -0.638000
     12 C12         11.9360    -0.1660    21.4880 ca         1 KO9      -0.067000
     13 C            8.9450     0.0720    21.0440 c          1 KO9       0.603100
     14 O            9.5370     0.5600    20.0950 o          1 KO9      -0.560100
     15 C1           7.4240     0.0800    21.1730 c3         1 KO9      -0.101100
     16 C2           6.7250     0.2970    19.8640 ca         1 KO9      -0.134300
     17 N            5.5830    -0.6690    17.9750 nb         1 KO9      -0.662000
     18 C3           6.5840     1.5640    19.3050 ca         1 KO9      -0.045000
     19 H1           8.9760    -0.8840    22.8340 hn         1 KO9       0.155000
     20 H2           5.8130     2.6680    17.6210 ha         1 KO9       0.127000
     21 H3           4.9530     0.6280    16.4980 h4         1 KO9       0.022100
     22 H4           6.2900    -1.7840    19.5590 h4         1 KO9       0.015100
     23 H5          10.5890    -1.5740    24.2500 h4         1 KO9       0.019100
     24 H6          14.5970    -1.1100    23.3910 h4         1 KO9       0.037100
     25 H7          11.6870     0.3040    20.5520 ha         1 KO9       0.168000
     26 H8           7.1760     0.8810    21.8750 hc         1 KO9       0.069200
     27 H9           7.0970    -0.8550    21.6330 hc         1 KO9       0.069200
     28 H10          6.9680     2.4330    19.8240 ha         1 KO9       0.122000
@<TRIPOS>BOND
     1     1     6 1   
     2     1    13 1   
     3     1    19 1   
     4     2     9 3   
     5     3     4 ar  
     6     3    18 ar  
     7     3    20 1   
     8     4    17 ar  
     9     4    21 1   
    10     5    16 ar  
    11     5    17 ar  
    12     5    22 1   
    13     6     7 ar  
    14     6    12 ar  
    15     7    11 ar  
    16     7    23 1   
    17     8     9 1   
    18     8    10 ar  
    19     8    12 ar  
    20    10    11 ar  
    21    10    24 1   
    22    12    25 1   
    23    13    14 2   
    24    13    15 1   
    25    15    16 1   
    26    15    26 1   
    27    15    27 1   
    28    16    18 ar  
    29    18    28 1   
@<TRIPOS>SUBSTRUCTURE
     1 KO9         1 TEMP              0 ****  ****    0 ROOT
