@<TRIPOS>MOLECULE
KOB
   34    35     1     0     0
SMALL
abcg2


@<TRIPOS>ATOM
      1 C13          7.1960   -13.7250     7.3560 ca         1 KOB      -0.075000
      2 C12          6.9840   -12.3660     7.5380 ca         1 KOB      -0.139500
      3 C11          5.6860   -11.8950     7.5440 ca         1 KOB       0.180000
      4 F11          5.4710   -10.5840     7.7280 f          1 KOB      -0.171000
      5 C10          4.6010   -12.7320     7.3590 ca         1 KOB      -0.139500
      6 C9           4.8250   -14.0850     7.1620 ca         1 KOB      -0.075000
      7 C8           6.1220   -14.5860     7.1730 ca         1 KOB       0.020600
      8 N8           6.3830   -15.9530     6.9380 ns         1 KOB      -0.344100
      9 C7           5.8690   -16.9800     7.6230 cs         1 KOB       0.465400
     10 S7           4.8090   -16.8650     8.9070 s          1 KOB      -0.579400
     11 N7           6.2550   -18.2140     7.2060 ns         1 KOB      -0.321300
     12 N6           7.2230   -18.3950     6.2650 nu         1 KOB      -0.739200
     13 C6           6.8930   -18.8470     5.0270 ca         1 KOB       0.423000
     14 C5           5.5360   -18.9180     4.6550 ca         1 KOB      -0.204000
     15 C4           5.1460   -19.3340     3.4100 ca         1 KOB       0.037000
     16 C3           6.1090   -19.7050     2.4730 ca         1 KOB      -0.243200
     17 N3           5.7050   -20.1450     1.1560 no         1 KOB       0.705200
     18 O3B          6.5670   -20.4720     0.3730 o          1 KOB      -0.390500
     19 O3A          4.5220   -20.1610     0.9070 o          1 KOB      -0.390500
     20 C2           7.4460   -19.6620     2.7890 ca         1 KOB       0.058000
     21 C1           7.8420   -19.2380     4.0500 ca         1 KOB      -0.282200
     22 N1           9.2640   -19.2240     4.3040 no         1 KOB       0.709200
     23 O1B          9.6530   -18.8560     5.3940 o          1 KOB      -0.402000
     24 O1A         10.0110   -19.5770     3.4250 o          1 KOB      -0.402000
     25 HE1          3.5950   -12.3350     7.3540 ha         1 KOB       0.140000
     26 HE2          7.8170   -11.6910     7.6810 ha         1 KOB       0.140000
     27 HD2          8.2070   -14.1130     7.3590 ha         1 KOB       0.131500
     28 HD1          3.9870   -14.7470     6.9970 ha         1 KOB       0.131500
     29 HAD          7.1080   -16.1580     6.2620 hn         1 KOB       0.329500
     30 HAC          5.9860   -19.0080     7.7710 hn         1 KOB       0.371500
     31 HAB          8.1740   -18.4850     6.5920 hn         1 KOB       0.551000
     32 H5           4.7780   -18.6410     5.3720 ha         1 KOB       0.155000
     33 H4           4.0920   -19.3690     3.1750 ha         1 KOB       0.163000
     34 H2           8.1930   -19.9530     2.0660 ha         1 KOB       0.188000
@<TRIPOS>BOND
     1     1     2 ar  
     2     1     7 ar  
     3     1    27 1   
     4     2     3 ar  
     5     2    26 1   
     6     3     4 1   
     7     3     5 ar  
     8     5     6 ar  
     9     5    25 1   
    10     6     7 ar  
    11     6    28 1   
    12     7     8 1   
    13     8     9 1   
    14     8    29 1   
    15     9    10 2   
    16     9    11 1   
    17    11    12 1   
    18    11    30 1   
    19    12    13 1   
    20    12    31 1   
    21    13    14 ar  
    22    13    21 ar  
    23    14    15 ar  
    24    14    32 1   
    25    15    16 ar  
    26    15    33 1   
    27    16    17 1   
    28    16    20 ar  
    29    17    18 1   
    30    17    19 1   
    31    20    21 ar  
    32    20    34 1   
    33    21    22 1   
    34    22    23 1   
    35    22    24 1   
@<TRIPOS>SUBSTRUCTURE
     1 KOB         1 TEMP              0 ****  ****    0 ROOT
