@<TRIPOS>MOLECULE
KOB
   34    35     1     0     0
SMALL
No Charge or Current Charge


@<TRIPOS>ATOM
      1 C13          7.0460   -13.6820     6.8770 ca         1 KOB      -0.075000
      2 C12          6.9280   -12.2850     6.9880 ca         1 KOB      -0.139500
      3 C11          5.7760   -11.7250     7.5580 ca         1 KOB       0.180000
      4 F11          5.6600   -10.3840     7.6630 f          1 KOB      -0.171000
      5 C10          4.7390   -12.5540     8.0120 ca         1 KOB      -0.139500
      6 C9           4.8570   -13.9520     7.9030 ca         1 KOB      -0.075000
      7 C8           6.0190   -14.5270     7.3440 ca         1 KOB       0.020600
      8 N8           6.1900   -15.9270     7.1950 ns         1 KOB      -0.344100
      9 C7           5.6410   -17.0370     7.7790 cs         1 KOB       0.465400
     10 S7           4.5710   -17.0690     9.0620 s          1 KOB      -0.579400
     11 N7           6.1200   -18.1940     7.2050 ns         1 KOB      -0.321300
     12 N6           7.1410   -18.2760     6.1680 nu         1 KOB      -0.739200
     13 C6           6.8670   -18.8100     4.8980 ca         1 KOB       0.423000
     14 C5           5.5400   -18.8210     4.4350 ca         1 KOB      -0.204000
     15 C4           5.2160   -19.3220     3.1660 ca         1 KOB       0.037000
     16 C3           6.2310   -19.8190     2.3260 ca         1 KOB      -0.243200
     17 N3           5.8950   -20.3540     0.9710 no         1 KOB       0.705200
     18 O3B          6.8180   -20.7800     0.2650 o          1 KOB      -0.390500
     19 O3A          4.7090   -20.3480     0.6170 o          1 KOB      -0.390500
     20 C2           7.5690   -19.8020     2.7770 ca         1 KOB       0.058000
     21 C1           7.8920   -19.3000     4.0600 ca         1 KOB      -0.282200
     22 N1           9.3230   -19.2930     4.4730 no         1 KOB       0.709200
     23 O1B          9.5950   -19.4250     5.6730 o          1 KOB      -0.402000
     24 O1A         10.1790   -19.2330     3.5830 o          1 KOB      -0.402000
     25 HE1          3.8440   -12.1130     8.4420 ha         1 KOB       0.140000
     26 HE2          7.7250   -11.6370     6.6320 ha         1 KOB       0.140000
     27 HD2          7.9440   -14.1090     6.4330 ha         1 KOB       0.131500
     28 HD1          4.0310   -14.5710     8.2360 ha         1 KOB       0.131500
     29 HAD          6.8480   -16.1920     6.4710 hn         1 KOB       0.329500
     30 HAC          5.7770   -19.0690     7.6090 hn         1 KOB       0.371500
     31 HAB          8.0850   -18.4820     6.5330 hn         1 KOB       0.551000
     32 H5           4.7430   -18.4290     5.0580 ha         1 KOB       0.155000
     33 H4           4.1740   -19.3140     2.8460 ha         1 KOB       0.163000
     34 H2           8.3610   -20.1840     2.1310 ha         1 KOB       0.188000
@<TRIPOS>BOND
     1     1     2 ar  
     2     1     7 ar  
     3     1    27 1   
     4     2     3 ar  
     5     2    26 1   
     6     3     4 1   
     7     3     5 ar  
     8     5     6 ar  
     9     5    25 1   
    10     6     7 ar  
    11     6    28 1   
    12     7     8 1   
    13     8     9 1   
    14     8    29 1   
    15     9    10 2   
    16     9    11 1   
    17    11    12 1   
    18    11    30 1   
    19    12    13 1   
    20    12    31 1   
    21    13    14 ar  
    22    13    21 ar  
    23    14    15 ar  
    24    14    32 1   
    25    15    16 ar  
    26    15    33 1   
    27    16    17 1   
    28    16    20 ar  
    29    17    18 1   
    30    17    19 1   
    31    20    21 ar  
    32    20    34 1   
    33    21    22 1   
    34    22    23 1   
    35    22    24 1   
@<TRIPOS>SUBSTRUCTURE
     1 KOB         1 TEMP              0 ****  ****    0 ROOT
