@<TRIPOS>MOLECULE
KOC
   90    94     1     0     0
SMALL
abcg2


@<TRIPOS>ATOM
      1 C10         18.4620    62.7800    16.1210 c3         1 KOC      -0.089100
      2 C13         21.4230    65.9970    18.4900 c5         1 KOC       0.114000
      3 C14         21.9040    66.6420    19.7860 c5         1 KOC      -0.095400
      4 C15         20.7450    66.3880    20.7500 c5         1 KOC      -0.084400
      5 C16         20.2680    64.9740    20.3740 c5         1 KOC       0.035700
      6 C17         18.7550    64.8140    20.5350 c          1 KOC       0.614100
      7 C18         19.1830    63.7190    22.6870 ca         1 KOC      -0.035000
      8 C20         20.5420    64.1860    24.6200 ca         1 KOC      -0.076000
      9 C23         23.0770    62.5030    27.5900 cc         1 KOC       0.275900
     10 O6          23.2760    62.6940    17.7970 o          1 KOC      -0.649100
     11 C5          23.0890    60.5500    16.8200 cc         1 KOC      -0.179600
     12 C32         22.5780    59.5990    15.9890 cd         1 KOC      -0.087200
     13 C3          23.3660    58.4070    15.9540 ca         1 KOC      -0.112800
     14 C2          23.1460    57.2310    15.2220 ca         1 KOC      -0.040000
     15 S           24.5680    60.0400    17.6010 ss         1 KOC       0.026400
     16 C4          24.4980    58.5010    16.7960 ca         1 KOC      -0.152000
     17 C33         25.3990    57.4410    16.9060 ca         1 KOC      -0.133000
     18 C34         25.1610    56.2940    16.1730 ca         1 KOC      -0.024000
     19 C1          24.0350    56.1770    15.3340 ca         1 KOC      -0.051300
     20 C           23.8370    54.9260    14.5280 c3         1 KOC      -0.041700
     21 F1          24.1920    53.8300    15.3270 f          1 KOC      -0.161000
     22 P           24.7550    54.8200    12.8600 p5         1 KOC       1.258500
     23 O2          24.2270    56.0260    12.0940 o          1 KOC      -0.895500
     24 O1          26.2220    54.9100    13.2580 o          1 KOC      -0.895500
     25 O           24.3260    53.4710    12.3010 o          1 KOC      -0.895500
     26 F           22.4660    54.7510    14.3120 f          1 KOC      -0.161000
     27 N           21.3940    62.2430    16.6200 ns         1 KOC      -0.488900
     28 C7          20.8030    63.5460    16.8560 c3         1 KOC       0.064700
     29 C8          19.5960    63.7890    15.8990 c3         1 KOC      -0.050000
     30 C11         19.0510    65.2050    16.1250 c3         1 KOC      -0.089100
     31 C9          20.1040    63.6860    14.4520 c3         1 KOC      -0.089100
     32 C12         20.4260    63.6680    18.3400 c          1 KOC       0.602100
     33 O5          19.9010    62.7200    18.9300 o          1 KOC      -0.611100
     34 N1          20.6610    64.8330    18.9680 n          1 KOC      -0.399800
     35 C27         16.8750    63.9670    21.8340 c3         1 KOC       0.121000
     36 C28         16.2440    65.1500    22.5580 c3         1 KOC      -0.176400
     37 C29         14.7550    64.9480    22.7830 c          1 KOC       0.608100
     38 O3          14.2130    63.8870    22.4510 o          1 KOC      -0.609100
     39 N4          14.0630    65.9630    23.3490 n          1 KOC      -0.419800
     40 C31         14.6450    67.2120    23.8150 c3         1 KOC       0.088800
     41 C30         12.6330    65.8370    23.5860 c3         1 KOC       0.088800
     42 C26         19.4870    62.3650    22.8030 ca         1 KOC      -0.113500
     43 C25         20.3220    61.9260    23.8160 ca         1 KOC      -0.076000
     44 C21         20.8690    62.8300    24.7350 ca         1 KOC      -0.136500
     45 C19         19.7000    64.6240    23.6100 ca         1 KOC      -0.113500
     46 C22         21.7690    62.3900    25.8030 cd         1 KOC       0.496900
     47 S1          22.2980    60.7340    25.9640 ss         1 KOC      -0.005400
     48 C24         23.2210    61.1700    27.3440 cd         1 KOC      -0.274000
     49 N3          22.2630    63.1790    26.7230 nc         1 KOC      -0.658000
     50 H1          18.0460    62.8620    17.1240 hc         1 KOC       0.039811
     51 H2          17.6650    62.9760    15.4010 hc         1 KOC       0.039811
     52 H3          18.7830    61.7460    15.9720 hc         1 KOC       0.039811
     53 H4          22.2410    65.6890    17.8450 h1         1 KOC       0.056700
     54 H5          20.7730    66.6750    17.9340 h1         1 KOC       0.056700
     55 H6          22.8060    66.1380    20.1390 hc         1 KOC       0.056700
     56 H7          22.1270    67.7010    19.6590 hc         1 KOC       0.056700
     57 H8          21.0330    66.4480    21.7960 hc         1 KOC       0.051200
     58 H9          19.9420    67.1060    20.5710 hc         1 KOC       0.051200
     59 H10         20.7890    64.2200    20.9620 h1         1 KOC       0.085700
     60 H11         20.9510    64.8920    25.3280 ha         1 KOC       0.129500
     61 H13         21.6790    59.7230    15.4020 ha         1 KOC       0.184000
     62 H14         22.2840    57.1550    14.5750 ha         1 KOC       0.137000
     63 H15         26.2660    57.5130    17.5500 ha         1 KOC       0.095000
     64 H16         25.8520    55.4660    16.2410 ha         1 KOC       0.145000
     65 H19         20.8260    61.5270    16.2010 hn         1 KOC       0.330500
     66 H20         21.5570    64.2920    16.6120 h1         1 KOC       0.066700
     67 H21         18.6870    65.3410    17.1430 hc         1 KOC       0.039811
     68 H22         19.8160    65.9580    15.9250 hc         1 KOC       0.039811
     69 H23         18.2200    65.3840    15.4400 hc         1 KOC       0.039811
     70 H24         20.4540    62.6810    14.2100 hc         1 KOC       0.039811
     71 H25         19.2940    63.9330    13.7630 hc         1 KOC       0.039811
     72 H26         20.9260    64.3840    14.2790 hc         1 KOC       0.039811
     73 H27         16.4210    63.8290    20.8570 h1         1 KOC       0.079200
     74 H28         16.7430    63.0510    22.4050 h1         1 KOC       0.079200
     75 H29         16.7380    65.2970    23.5230 hc         1 KOC       0.064200
     76 H30         16.4130    66.0580    21.9770 hc         1 KOC       0.064200
     77 H31         14.1720    68.0550    23.3050 h1         1 KOC       0.039533
     78 H32         14.4740    67.3230    24.8890 h1         1 KOC       0.039533
     79 H33         15.7120    67.2500    23.6310 h1         1 KOC       0.039533
     80 H34         12.1150    66.6990    23.1600 h1         1 KOC       0.039533
     81 H35         12.2670    64.9270    23.1240 h1         1 KOC       0.039533
     82 H36         12.4270    65.8080    24.6600 h1         1 KOC       0.039533
     83 H37         19.0780    61.6640    22.0870 ha         1 KOC       0.132000
     84 H38         20.5530    60.8700    23.8830 ha         1 KOC       0.129500
     85 H39         19.4450    65.6720    23.5290 ha         1 KOC       0.132000
     86 H40         23.8030    60.4430    27.8840 h4         1 KOC       0.159000
     87 O4          17.9820    65.2760    19.6990 o          1 KOC      -0.600100
     88 C6          22.5980    61.9100    17.1230 c          1 KOC       0.647300
     89 N2          18.3170    64.1670    21.6430 n          1 KOC      -0.246400
     90 H12         23.5520    63.0350    28.4020 h4         1 KOC       0.036100
@<TRIPOS>BOND
     1     1    29 1   
     2     1    50 1   
     3     1    51 1   
     4     1    52 1   
     5     2     3 1   
     6     2    34 1   
     7     2    53 1   
     8     2    54 1   
     9     3     4 1   
    10     3    55 1   
    11     3    56 1   
    12     4     5 1   
    13     4    57 1   
    14     4    58 1   
    15     5     6 1   
    16     5    34 1   
    17     5    59 1   
    18     6    87 2   
    19     6    89 1   
    20     7    42 ar  
    21     7    45 ar  
    22     7    89 1   
    23     8    44 ar  
    24     8    45 ar  
    25     8    60 1   
    26     9    48 2   
    27     9    49 1   
    28     9    90 1   
    29    10    88 2   
    30    11    12 2   
    31    11    15 1   
    32    11    88 1   
    33    12    13 1   
    34    12    61 1   
    35    13    14 ar  
    36    13    16 ar  
    37    14    19 ar  
    38    14    62 1   
    39    15    16 1   
    40    16    17 ar  
    41    17    18 ar  
    42    17    63 1   
    43    18    19 ar  
    44    18    64 1   
    45    19    20 1   
    46    20    21 1   
    47    20    22 1   
    48    20    26 1   
    49    22    23 1   
    50    22    24 1   
    51    22    25 1   
    52    27    28 1   
    53    27    65 1   
    54    27    88 1   
    55    28    29 1   
    56    28    32 1   
    57    28    66 1   
    58    29    30 1   
    59    29    31 1   
    60    30    67 1   
    61    30    68 1   
    62    30    69 1   
    63    31    70 1   
    64    31    71 1   
    65    31    72 1   
    66    32    33 2   
    67    32    34 1   
    68    35    36 1   
    69    35    73 1   
    70    35    74 1   
    71    35    89 1   
    72    36    37 1   
    73    36    75 1   
    74    36    76 1   
    75    37    38 2   
    76    37    39 1   
    77    39    40 1   
    78    39    41 1   
    79    40    77 1   
    80    40    78 1   
    81    40    79 1   
    82    41    80 1   
    83    41    81 1   
    84    41    82 1   
    85    42    43 ar  
    86    42    83 1   
    87    43    44 ar  
    88    43    84 1   
    89    44    46 1   
    90    45    85 1   
    91    46    47 1   
    92    46    49 2   
    93    47    48 1   
    94    48    86 1   
@<TRIPOS>SUBSTRUCTURE
     1 KOC         1 TEMP              0 ****  ****    0 ROOT
