@<TRIPOS>MOLECULE
KOC
   90    94     1     0     0
SMALL
No Charge or Current Charge


@<TRIPOS>ATOM
      1 C10         18.8790    62.6050    16.1180 c3         1 KOC      -0.089100
      2 C13         21.3260    65.6650    19.1530 c5         1 KOC       0.114000
      3 C14         21.4150    66.2170    20.5990 c5         1 KOC      -0.095400
      4 C15         20.0900    65.7180    21.2200 c5         1 KOC      -0.084400
      5 C16         20.0620    64.2400    20.7300 c5         1 KOC       0.035700
      6 C17         18.5870    63.6960    20.8100 c          1 KOC       0.614100
      7 C18         18.9090    63.2620    23.2910 ca         1 KOC      -0.035000
      8 C20         19.7470    63.7620    25.5330 ca         1 KOC      -0.076000
      9 C23         22.5400    62.6740    28.5790 cc         1 KOC       0.275900
     10 O6          23.5930    63.4180    15.4550 o          1 KOC      -0.649100
     11 C5          23.6290    61.0310    15.4170 cc         1 KOC      -0.179600
     12 C32         23.0910    59.7920    15.7400 cd         1 KOC      -0.087200
     13 C3          23.8520    58.6660    15.2540 ca         1 KOC      -0.112800
     14 C2          23.5590    57.3030    15.4230 ca         1 KOC      -0.040000
     15 S           25.1360    60.8590    14.4700 ss         1 KOC       0.026400
     16 C4          24.9660    59.0830    14.5610 ca         1 KOC      -0.152000
     17 C33         25.8470    58.1520    13.9960 ca         1 KOC      -0.133000
     18 C34         25.5770    56.7770    14.1530 ca         1 KOC      -0.024000
     19 C1          24.4360    56.3380    14.8720 ca         1 KOC      -0.051300
     20 C           24.1570    54.8370    15.0380 c3         1 KOC      -0.041700
     21 F1          25.3190    54.1490    15.2030 f          1 KOC      -0.161000
     22 P           23.2260    54.0930    13.5600 p5         1 KOC       1.258500
     23 O2          21.9120    54.7860    13.3910 o          1 KOC      -0.895500
     24 O1          24.0390    54.2620    12.3160 o          1 KOC      -0.895500
     25 O           22.9860    52.6360    13.7950 o          1 KOC      -0.895500
     26 F           23.4350    54.5940    16.1650 f          1 KOC      -0.161000
     27 N           21.9110    62.3120    16.5150 ns         1 KOC      -0.488900
     28 C7          21.1430    63.4890    16.9900 c3         1 KOC       0.064700
     29 C8          19.8950    63.7810    16.0670 c3         1 KOC      -0.050000
     30 C11         19.1650    65.0810    16.5020 c3         1 KOC      -0.089100
     31 C9          20.3500    63.9750    14.5920 c3         1 KOC      -0.089100
     32 C12         20.7840    63.2640    18.5020 c          1 KOC       0.602100
     33 O5          20.6210    62.1320    18.9510 o          1 KOC      -0.611100
     34 N1          20.6170    64.3790    19.3540 n          1 KOC      -0.399800
     35 C27         16.6480    63.7560    22.3630 c3         1 KOC       0.121000
     36 C28         16.1540    65.2190    22.3830 c3         1 KOC      -0.176400
     37 C29         14.6470    65.3840    22.6350 c          1 KOC       0.608100
     38 O3          13.9250    64.4070    22.7900 o          1 KOC      -0.609100
     39 N4          14.1060    66.6900    22.6890 n          1 KOC      -0.419800
     40 C31         14.9410    67.8960    22.4720 c3         1 KOC       0.088800
     41 C30         12.6600    66.8860    22.9390 c3         1 KOC       0.088800
     42 C26         19.8880    62.2550    23.1810 ca         1 KOC      -0.113500
     43 C25         20.7560    61.9720    24.2490 ca         1 KOC      -0.076000
     44 C21         20.6940    62.7170    25.4480 ca         1 KOC      -0.136500
     45 C19         18.8800    64.0400    24.4630 ca         1 KOC      -0.113500
     46 C22         21.6110    62.4300    26.5800 cd         1 KOC       0.496900
     47 S1          22.7890    61.1130    26.5360 ss         1 KOC      -0.005400
     48 C24         23.2740    61.5990    28.1490 cd         1 KOC      -0.274000
     49 N3          21.5990    63.1480    27.7000 nc         1 KOC      -0.658000
     50 H1          18.4830    62.4630    17.1300 hc         1 KOC       0.039811
     51 H2          18.0270    62.7980    15.4550 hc         1 KOC       0.039811
     52 H3          19.3400    61.6640    15.7970 hc         1 KOC       0.039811
     53 H4          22.3240    65.5360    18.7130 h1         1 KOC       0.056700
     54 H5          20.7430    66.3380    18.5130 h1         1 KOC       0.056700
     55 H6          22.2800    65.7980    21.1280 hc         1 KOC       0.056700
     56 H7          21.5140    67.3090    20.6240 hc         1 KOC       0.056700
     57 H8          20.0790    65.8040    22.3120 hc         1 KOC       0.051200
     58 H9          19.2360    66.2890    20.8350 hc         1 KOC       0.051200
     59 H10         20.7340    63.6150    21.3260 h1         1 KOC       0.085700
     60 H11         19.6820    64.3770    26.4290 ha         1 KOC       0.129500
     61 H13         22.1760    59.6590    16.3080 ha         1 KOC       0.184000
     62 H14         22.6690    57.0020    15.9710 ha         1 KOC       0.137000
     63 H15         26.7240    58.4820    13.4450 ha         1 KOC       0.095000
     64 H16         26.2550    56.0500    13.7120 ha         1 KOC       0.145000
     65 H19         21.5760    61.3960    16.7800 hn         1 KOC       0.330500
     66 H20         21.8050    64.3600    16.9420 h1         1 KOC       0.066700
     67 H21         18.7580    64.9980    17.5160 hc         1 KOC       0.039811
     68 H22         19.8430    65.9420    16.4670 hc         1 KOC       0.039811
     69 H23         18.3230    65.2970    15.8340 hc         1 KOC       0.039811
     70 H24         20.7790    63.0550    14.1770 hc         1 KOC       0.039811
     71 H25         19.5030    64.2550    13.9530 hc         1 KOC       0.039811
     72 H26         21.1040    64.7680    14.5160 hc         1 KOC       0.039811
     73 H27         16.1140    63.1960    21.5840 h1         1 KOC       0.079200
     74 H28         16.3940    63.2810    23.3210 h1         1 KOC       0.079200
     75 H29         16.6930    65.8290    23.1140 hc         1 KOC       0.064200
     76 H30         16.3990    65.7340    21.4480 hc         1 KOC       0.064200
     77 H31         15.4160    67.8490    21.4840 h1         1 KOC       0.039533
     78 H32         14.3290    68.8060    22.5180 h1         1 KOC       0.039533
     79 H33         15.7150    67.9580    23.2470 h1         1 KOC       0.039533
     80 H34         12.4190    67.9520    23.0370 h1         1 KOC       0.039533
     81 H35         12.0820    66.4670    22.1060 h1         1 KOC       0.039533
     82 H36         12.3720    66.3760    23.8680 h1         1 KOC       0.039533
     83 H37         19.9630    61.6630    22.2710 ha         1 KOC       0.132000
     84 H38         21.4790    61.1690    24.1240 ha         1 KOC       0.129500
     85 H39         18.1860    64.8710    24.5550 ha         1 KOC       0.132000
     86 H40         24.0590    61.0740    28.6780 h4         1 KOC       0.159000
     87 O4          17.8510    63.4950    19.8470 o          1 KOC      -0.600100
     88 C6          23.0720    62.3580    15.7760 c          1 KOC       0.647300
     89 N2          18.1100    63.6460    22.1510 n          1 KOC      -0.246400
     90 H12         22.6390    63.1690    29.5370 h4         1 KOC       0.036100
@<TRIPOS>BOND
     1     1    29 1   
     2     1    50 1   
     3     1    51 1   
     4     1    52 1   
     5     2     3 1   
     6     2    34 1   
     7     2    53 1   
     8     2    54 1   
     9     3     4 1   
    10     3    55 1   
    11     3    56 1   
    12     4     5 1   
    13     4    57 1   
    14     4    58 1   
    15     5     6 1   
    16     5    34 1   
    17     5    59 1   
    18     6    87 2   
    19     6    89 1   
    20     7    42 ar  
    21     7    45 ar  
    22     7    89 1   
    23     8    44 ar  
    24     8    45 ar  
    25     8    60 1   
    26     9    48 2   
    27     9    49 1   
    28     9    90 1   
    29    10    88 2   
    30    11    12 2   
    31    11    15 1   
    32    11    88 1   
    33    12    13 1   
    34    12    61 1   
    35    13    14 ar  
    36    13    16 ar  
    37    14    19 ar  
    38    14    62 1   
    39    15    16 1   
    40    16    17 ar  
    41    17    18 ar  
    42    17    63 1   
    43    18    19 ar  
    44    18    64 1   
    45    19    20 1   
    46    20    21 1   
    47    20    22 1   
    48    20    26 1   
    49    22    23 1   
    50    22    24 1   
    51    22    25 1   
    52    27    28 1   
    53    27    65 1   
    54    27    88 1   
    55    28    29 1   
    56    28    32 1   
    57    28    66 1   
    58    29    30 1   
    59    29    31 1   
    60    30    67 1   
    61    30    68 1   
    62    30    69 1   
    63    31    70 1   
    64    31    71 1   
    65    31    72 1   
    66    32    33 2   
    67    32    34 1   
    68    35    36 1   
    69    35    73 1   
    70    35    74 1   
    71    35    89 1   
    72    36    37 1   
    73    36    75 1   
    74    36    76 1   
    75    37    38 2   
    76    37    39 1   
    77    39    40 1   
    78    39    41 1   
    79    40    77 1   
    80    40    78 1   
    81    40    79 1   
    82    41    80 1   
    83    41    81 1   
    84    41    82 1   
    85    42    43 ar  
    86    42    83 1   
    87    43    44 ar  
    88    43    84 1   
    89    44    46 1   
    90    45    85 1   
    91    46    47 1   
    92    46    49 2   
    93    47    48 1   
    94    48    86 1   
@<TRIPOS>SUBSTRUCTURE
     1 KOC         1 TEMP              0 ****  ****    0 ROOT
