@<TRIPOS>MOLECULE
KOE
   49    52     1     0     0
SMALL
No Charge or Current Charge


@<TRIPOS>ATOM
      1 N1         -16.2310     7.9890    -1.3000 na         1 KOE       0.137800
      2 N3         -15.3970     7.8120    -2.3670 nc         1 KOE      -0.190800
      3 C4         -24.5940     8.2130    -1.5350 ca         1 KOE      -0.029900
      4 C5         -23.2050     8.0480    -1.6750 ca         1 KOE      -0.022000
      5 C6         -22.4590     8.9690    -2.4360 ca         1 KOE      -0.121000
      6 C7         -20.0570     8.6490    -0.8940 c6         1 KOE       0.277300
      7 C8         -19.6570     6.2350    -0.9750 c6         1 KOE       0.134300
      8 C10        -18.1150     6.4030    -0.7740 c6         1 KOE       0.130300
      9 C13        -14.2310     8.4180    -0.6160 cd         1 KOE       0.233500
     10 C15        -13.1420     9.1080     1.5430 ca         1 KOE      -0.136000
     11 C17        -10.7310     9.4470     1.6900 ca         1 KOE       0.085000
     12 C20        -18.5210     8.9420    -0.7510 c6         1 KOE       0.145300
     13 C1         -25.2460     9.2910    -2.1570 ca         1 KOE      -0.060000
     14 C11        -17.6970     7.7760    -1.3890 c6         1 KOE       0.082300
     15 C12        -15.5250     8.3680    -0.1810 cc         1 KOE      -0.167000
     16 C14        -13.0310     8.7710     0.1750 ca         1 KOE      -0.055500
     17 C16        -12.0000     9.4430     2.2920 ca         1 KOE       0.160000
     18 C18        -10.6100     9.1130     0.3310 ca         1 KOE       0.160000
     19 C19        -11.7490     8.7780    -0.4220 ca         1 KOE      -0.136000
     20 C2         -24.5040    10.2050    -2.9260 ca         1 KOE      -0.125000
     21 C3         -23.1140    10.0420    -3.0670 ca         1 KOE      -0.057000
     22 C9         -20.2130     4.8950    -0.3920 c3         1 KOE       0.172600
     23 F1         -12.1340     9.7620     3.6000 f          1 KOE      -0.156000
     24 F2          -9.3960     9.1120    -0.2650 f          1 KOE      -0.156000
     25 N2         -14.1880     8.0740    -1.9510 nd         1 KOE      -0.346000
     26 O1         -20.3660     7.3420    -0.3520 os         1 KOE      -0.405000
     27 O2         -21.6240     4.7190    -0.6270 oh         1 KOE      -0.709000
     28 O3         -17.7520     6.3460     0.6260 oh         1 KOE      -0.715000
     29 O4         -18.1550    10.2150    -1.3380 oh         1 KOE      -0.690000
     30 S1         -20.6880     8.7910    -2.6430 ss         1 KOE      -0.245000
     31 H51        -22.7200     7.1990    -1.2020 ha         1 KOE       0.151000
     32 H71        -20.6070     9.4100    -0.3210 h2         1 KOE       0.100700
     33 H81        -19.8770     6.2260    -2.0530 h1         1 KOE       0.078700
     34 H101       -17.5990     5.6070    -1.3330 h1         1 KOE       0.064700
     35 H151       -14.1090     9.1140     2.0380 ha         1 KOE       0.148000
     36 H201       -18.2970     8.9620     0.3260 h1         1 KOE       0.063700
     37 H11        -26.3210     9.4160    -2.0480 ha         1 KOE       0.131000
     38 H111       -17.9450     7.7490    -2.4580 h1         1 KOE       0.122700
     39 H121       -15.9780     8.5520     0.7820 h4         1 KOE       0.176000
     40 H191       -11.6250     8.5240    -1.4720 ha         1 KOE       0.148000
     41 H21        -25.0060    11.0390    -3.4120 ha         1 KOE       0.121000
     42 H31        -22.5460    10.7520    -3.6640 ha         1 KOE       0.127000
     43 H92        -19.6530     4.0660    -0.8470 h1         1 KOE       0.031200
     44 H91        -20.0110     4.8730     0.6870 h1         1 KOE       0.031200
     45 H22        -21.8900     3.8880    -0.1690 ho         1 KOE       0.513000
     46 H32        -17.6080     5.4000     0.8630 ho         1 KOE       0.517000
     47 H41        -18.5140    10.9290    -0.7610 ho         1 KOE       0.519000
     48 F3          -9.6320     9.7700     2.4140 f          1 KOE      -0.144000
     49 Br1        -25.6000     6.9590    -0.4990 br         1 KOE      -0.095100
@<TRIPOS>BOND
     1     1     2 1   
     2     1    14 1   
     3     1    15 1   
     4     2    25 2   
     5     3     4 ar  
     6     3    13 ar  
     7     3    49 1   
     8     4     5 ar  
     9     4    31 1   
    10     5    21 ar  
    11     5    30 1   
    12     6    12 1   
    13     6    26 1   
    14     6    30 1   
    15     6    32 1   
    16     7     8 1   
    17     7    22 1   
    18     7    26 1   
    19     7    33 1   
    20     8    14 1   
    21     8    28 1   
    22     8    34 1   
    23     9    15 2   
    24     9    16 1   
    25     9    25 1   
    26    10    16 ar  
    27    10    17 ar  
    28    10    35 1   
    29    11    17 ar  
    30    11    18 ar  
    31    11    48 1   
    32    12    14 1   
    33    12    29 1   
    34    12    36 1   
    35    13    20 ar  
    36    13    37 1   
    37    14    38 1   
    38    15    39 1   
    39    16    19 ar  
    40    17    23 1   
    41    18    19 ar  
    42    18    24 1   
    43    19    40 1   
    44    20    21 ar  
    45    20    41 1   
    46    21    42 1   
    47    22    27 1   
    48    22    43 1   
    49    22    44 1   
    50    27    45 1   
    51    28    46 1   
    52    29    47 1   
@<TRIPOS>SUBSTRUCTURE
     1 KOE         1 TEMP              0 ****  ****    0 ROOT
