@<TRIPOS>MOLECULE
KOE
   49    52     1     0     0
SMALL
abcg2


@<TRIPOS>ATOM
      1 N1         -16.3390     8.0150    -1.1770 na         1 KOE       0.137800
      2 N3         -15.5450     7.7340    -2.2000 nc         1 KOE      -0.190800
      3 C4         -24.3220     7.6640    -2.2350 ca         1 KOE      -0.029900
      4 C5         -22.9430     7.6790    -2.3810 ca         1 KOE      -0.022000
      5 C6         -22.2920     8.9050    -2.4940 ca         1 KOE      -0.121000
      6 C7         -20.0370     8.8280    -0.9270 c6         1 KOE       0.277300
      7 C8         -19.7610     6.4730    -0.8120 c6         1 KOE       0.134300
      8 C10        -18.2540     6.5820    -0.5980 c6         1 KOE       0.130300
      9 C13        -14.3220     8.3590    -0.5440 cd         1 KOE       0.233500
     10 C15        -13.1270     9.1260     1.4850 ca         1 KOE      -0.136000
     11 C17        -10.7250     9.2880     1.5070 ca         1 KOE       0.085000
     12 C20        -18.5210     9.0730    -0.8180 c6         1 KOE       0.145300
     13 C1         -25.0620     8.8370    -2.2070 ca         1 KOE      -0.060000
     14 C11        -17.7700     7.8430    -1.3130 c6         1 KOE       0.082300
     15 C12        -15.6270     8.4090    -0.1110 cc         1 KOE      -0.167000
     16 C14        -13.0890     8.6790     0.1650 ca         1 KOE      -0.055500
     17 C16        -11.9500     9.4240     2.1350 ca         1 KOE       0.160000
     18 C18        -10.7010     8.8450     0.1970 ca         1 KOE       0.160000
     19 C19        -11.8610     8.5390    -0.4800 ca         1 KOE      -0.136000
     20 C2         -24.3990    10.0510    -2.3270 ca         1 KOE      -0.125000
     21 C3         -23.0200    10.0900    -2.4700 ca         1 KOE      -0.057000
     22 C9         -20.3510     5.2720    -0.1080 c3         1 KOE       0.172600
     23 F1         -11.9690     9.8550     3.3960 f          1 KOE      -0.156000
     24 F2          -9.5180     8.7160    -0.4050 f          1 KOE      -0.156000
     25 N2         -14.3340     7.9350    -1.8280 nd         1 KOE      -0.346000
     26 O1         -20.4180     7.6350    -0.3340 os         1 KOE      -0.405000
     27 O2         -21.6880     5.1210    -0.5180 oh         1 KOE      -0.709000
     28 O3         -17.9230     6.6760     0.7650 oh         1 KOE      -0.715000
     29 O4         -18.0960    10.1660    -1.5750 oh         1 KOE      -0.690000
     30 S1         -20.5340     8.9640    -2.7020 ss         1 KOE      -0.245000
     31 H51        -22.3790     6.7590    -2.4050 ha         1 KOE       0.151000
     32 H71        -20.5710     9.6180    -0.3940 h2         1 KOE       0.100700
     33 H81        -19.9340     6.3620    -1.8930 h1         1 KOE       0.078700
     34 H101       -17.7770     5.7160    -1.0700 h1         1 KOE       0.064700
     35 H151       -14.0610     9.2480     2.0170 ha         1 KOE       0.148000
     36 H201       -18.3150     9.2210     0.2510 h1         1 KOE       0.063700
     37 H11        -26.1380     8.8170    -2.0970 ha         1 KOE       0.131000
     38 H111       -17.9430     7.7160    -2.3860 h1         1 KOE       0.122700
     39 H121       -16.0720     8.6920     0.8260 h4         1 KOE       0.176000
     40 H191       -11.8030     8.1950    -1.5040 ha         1 KOE       0.148000
     41 H21        -24.9680    10.9700    -2.3070 ha         1 KOE       0.121000
     42 H31        -22.5100    11.0400    -2.5630 ha         1 KOE       0.127000
     43 H92        -19.7420     4.3980    -0.3770 h1         1 KOE       0.031200
     44 H91        -20.2680     5.4030     0.9780 h1         1 KOE       0.031200
     45 H22        -22.0720     4.3860    -0.0330 ho         1 KOE       0.513000
     46 H32        -17.5730     5.8330     1.0670 ho         1 KOE       0.517000
     47 H41        -18.4420    10.9750    -1.1830 ho         1 KOE       0.519000
     48 F3          -9.5950     9.5770     2.1500 f          1 KOE      -0.144000
     49 BR1        -25.2090     6.0050    -2.0680 br         1 KOE      -0.095100
@<TRIPOS>BOND
     1     1     2 1   
     2     1    14 1   
     3     1    15 1   
     4     2    25 2   
     5     3     4 ar  
     6     3    13 ar  
     7     3    49 1   
     8     4     5 ar  
     9     4    31 1   
    10     5    21 ar  
    11     5    30 1   
    12     6    12 1   
    13     6    26 1   
    14     6    30 1   
    15     6    32 1   
    16     7     8 1   
    17     7    22 1   
    18     7    26 1   
    19     7    33 1   
    20     8    14 1   
    21     8    28 1   
    22     8    34 1   
    23     9    15 2   
    24     9    16 1   
    25     9    25 1   
    26    10    16 ar  
    27    10    17 ar  
    28    10    35 1   
    29    11    17 ar  
    30    11    18 ar  
    31    11    48 1   
    32    12    14 1   
    33    12    29 1   
    34    12    36 1   
    35    13    20 ar  
    36    13    37 1   
    37    14    38 1   
    38    15    39 1   
    39    16    19 ar  
    40    17    23 1   
    41    18    19 ar  
    42    18    24 1   
    43    19    40 1   
    44    20    21 ar  
    45    20    41 1   
    46    21    42 1   
    47    22    27 1   
    48    22    43 1   
    49    22    44 1   
    50    27    45 1   
    51    28    46 1   
    52    29    47 1   
@<TRIPOS>SUBSTRUCTURE
     1 KOE         1 TEMP              0 ****  ****    0 ROOT
