@<TRIPOS>MOLECULE
KOH
   28    29     1     0     0
SMALL
No Charge or Current Charge


@<TRIPOS>ATOM
      1 N1          -4.6620     0.2770     0.0720 na         1 KOH      -0.299500
      2 C2          -5.8750    -0.3790    -0.0140 cc         1 KOH      -0.246000
      3 C3          -5.5540    -1.7010    -0.1820 cd         1 KOH       0.231900
      4 N4          -4.1850    -1.8660    -0.2000 nd         1 KOH      -0.681000
      5 C5          -3.6630    -0.6590    -0.0450 cc         1 KOH       0.487000
      6 C6          -2.2260    -0.3530    -0.0030 ca         1 KOH      -0.197500
      7 C7          -1.2730    -1.3880    -0.1330 ca         1 KOH      -0.022000
      8 C8           0.1050    -1.1080    -0.0950 ca         1 KOH      -0.210000
      9 C9          -1.7640     0.9730     0.1670 ca         1 KOH      -0.068000
     10 C10         -0.3880     1.2550     0.2060 ca         1 KOH       0.052000
     11 Cl1          0.1320     2.9280     0.4200 cl         1 KOH      -0.195000
     12 C12          0.5580     0.2170     0.0750 ca         1 KOH       0.200100
     13 O13          1.9050     0.5340     0.1190 os         1 KOH      -0.332100
     14 C14          2.9340    -0.4600    -0.0060 c3         1 KOH       0.165600
     15 C15          4.2860     0.2630     0.0890 c3         1 KOH      -0.219400
     16 C16          5.3990    -0.7750    -0.0410 c          1 KOH       0.727000
     17 O17          5.8000    -1.0500    -1.1610 o          1 KOH      -0.732000
     18 O18          5.7960    -1.3230     0.9760 o          1 KOH      -0.732000
     19 H1          -4.5150     1.2690     0.1990 hn         1 KOH       0.348000
     20 H2          -6.8360     0.1170     0.0480 h4         1 KOH       0.149000
     21 H3          -6.2310    -2.5400    -0.2900 h4         1 KOH       0.029100
     22 H5          -1.5960    -2.4190    -0.2650 ha         1 KOH       0.128000
     23 H6           0.8020    -1.9340    -0.1990 ha         1 KOH       0.140000
     24 H7          -2.4650     1.7970     0.2710 ha         1 KOH       0.108000
     25 H8           2.8560    -1.2030     0.7990 h1         1 KOH       0.045700
     26 H9           2.8590    -0.9780    -0.9720 h1         1 KOH       0.045700
     27 H10          4.3140     0.9690    -0.7500 hc         1 KOH       0.038700
     28 H11          4.3100     0.7370     1.0780 hc         1 KOH       0.038700
@<TRIPOS>BOND
     1     1     2 1   
     2     1     5 1   
     3     1    19 1   
     4     2     3 2   
     5     2    20 1   
     6     3     4 1   
     7     3    21 1   
     8     4     5 2   
     9     5     6 1   
    10     6     7 ar  
    11     6     9 ar  
    12     7     8 ar  
    13     7    22 1   
    14     8    12 ar  
    15     8    23 1   
    16     9    10 ar  
    17     9    24 1   
    18    10    11 1   
    19    10    12 ar  
    20    12    13 1   
    21    13    14 1   
    22    14    15 1   
    23    14    25 1   
    24    14    26 1   
    25    15    16 1   
    26    15    27 1   
    27    15    28 1   
    28    16    17 1   
    29    16    18 1   
@<TRIPOS>SUBSTRUCTURE
     1 KOH         1 TEMP              0 ****  ****    0 ROOT
