@<TRIPOS>MOLECULE
KOH
   28    29     1     0     0
SMALL
bcc


@<TRIPOS>ATOM
      1 N1          -4.6000     0.1940    -0.2930 na         1 KOH      -0.299900
      2 C2          -5.8010    -0.4250    -0.1040 cc         1 KOH      -0.278600
      3 C3          -5.4860    -1.6480     0.4050 cd         1 KOH       0.297200
      4 N4          -4.1330    -1.7850     0.5170 nd         1 KOH      -0.681000
      5 C5          -3.6190    -0.6500     0.1120 cc         1 KOH       0.487000
      6 C6          -2.1910    -0.3430     0.0510 ca         1 KOH      -0.197500
      7 C7          -1.2680    -1.3630    -0.1200 ca         1 KOH      -0.040000
      8 C8           0.0900    -1.0990    -0.1680 ca         1 KOH      -0.228000
      9 C9          -1.7200     0.9670     0.1820 ca         1 KOH      -0.086000
     10 C10         -0.3700     1.2320     0.1150 ca         1 KOH      -0.039600
     11 CL1          0.1920     2.8520     0.3000 cl         1 KOH      -0.103400
     12 C12          0.5690     0.2060    -0.0470 ca         1 KOH       0.200100
     13 O13          1.8520     0.5590    -0.0230 os         1 KOH      -0.308900
     14 C14          2.8430    -0.4560    -0.1810 c3         1 KOH       0.142400
     15 C15          4.1810     0.2040     0.0790 c3         1 KOH      -0.219400
     16 C16          5.3400    -0.7750    -0.0030 c          1 KOH       0.937600
     17 O17          6.4600    -0.2230    -0.0250 o          1 KOH      -0.837300
     18 O18          5.1340    -1.9740    -0.0170 o          1 KOH      -0.837300
     19 H1          -4.4750     1.1280    -0.6440 hn         1 KOH       0.297700
     20 H2          -6.7360     0.0360    -0.3650 h4         1 KOH       0.167000
     21 H3          -6.1590    -2.4490     0.6640 h4         1 KOH       0.029100
     22 H5          -1.6070    -2.3820    -0.2340 ha         1 KOH       0.146000
     23 H6           0.7750    -1.9210    -0.3220 ha         1 KOH       0.158000
     24 H7          -2.4060     1.7790     0.3710 ha         1 KOH       0.126000
     25 H8           2.6960    -1.2480     0.5540 h1         1 KOH       0.045700
     26 H9           2.7780    -0.8860    -1.1850 h1         1 KOH       0.045700
     27 H10          4.3230     1.0770    -0.5600 hc         1 KOH       0.038700
     28 H11          4.1610     0.5930     1.1020 hc         1 KOH       0.038700
@<TRIPOS>BOND
     1     1     2 1   
     2     1     5 1   
     3     1    19 1   
     4     2     3 2   
     5     2    20 1   
     6     3     4 1   
     7     3    21 1   
     8     4     5 2   
     9     5     6 1   
    10     6     7 ar  
    11     6     9 ar  
    12     7     8 ar  
    13     7    22 1   
    14     8    12 ar  
    15     8    23 1   
    16     9    10 ar  
    17     9    24 1   
    18    10    11 1   
    19    10    12 ar  
    20    12    13 1   
    21    13    14 1   
    22    14    15 1   
    23    14    25 1   
    24    14    26 1   
    25    15    16 1   
    26    15    27 1   
    27    15    28 1   
    28    16    17 1   
    29    16    18 1   
@<TRIPOS>SUBSTRUCTURE
     1 KOH         1 TEMP              0 ****  ****    0 ROOT
