@<TRIPOS>MOLECULE
KOI
   28    29     1     0     0
SMALL
abcg2


@<TRIPOS>ATOM
      1 N1           6.3920     2.0140    18.2770 nb         1 KOI      -0.644000
      2 C4          10.3140    -0.3260    22.8990 ca         1 KOI      -0.080300
      3 C5           8.8810     0.0340    23.2180 c3         1 KOI      -0.109100
      4 C6           8.2750     0.8110    22.0540 c          1 KOI       0.606100
      5 C7           6.9500     0.4130    19.9760 ca         1 KOI      -0.075000
      6 C8           6.3120    -0.5880    19.2400 ca         1 KOI      -0.132000
      7 C10          5.7870     1.0480    17.5840 ca         1 KOI       0.308900
      8 O            8.4830     2.0070    21.9030 o          1 KOI      -0.572100
      9 C3          11.3610     0.5130    23.2790 ca         1 KOI      -0.085000
     10 C2          12.6720     0.2000    22.9400 ca         1 KOI      -0.098000
     11 C1          12.9610    -0.9510    22.2150 ca         1 KOI      -0.094000
     12 C12         10.5960    -1.4840    22.1740 ca         1 KOI      -0.100000
     13 C           11.9110    -1.7790    21.8440 ca         1 KOI       0.126000
     14 CL          12.2520    -3.2390    20.9350 cl         1 KOI      -0.211000
     15 N            7.5400     0.0510    21.1950 ns         1 KOI      -0.142000
     16 C11          6.9600     1.7100    19.4480 ca         1 KOI       0.320900
     17 C9           5.7240    -0.2670    18.0310 ca         1 KOI      -0.135000
     18 H1           8.8420     0.6820    24.0920 hc         1 KOI       0.073200
     19 H2           8.3020    -0.8670    23.4260 hc         1 KOI       0.073200
     20 H3           6.2860    -1.6030    19.6190 ha         1 KOI       0.114000
     21 H4           5.3380     1.3330    16.6400 h4         1 KOI       0.022100
     22 H5          11.1470     1.4110    23.8440 ha         1 KOI       0.127000
     23 H6          13.4800     0.8550    23.2410 ha         1 KOI       0.123000
     24 H7          13.9780    -1.2020    21.9490 ha         1 KOI       0.133000
     25 H8           9.7990    -2.1490    21.8700 ha         1 KOI       0.122000
     26 H9           7.4320    -0.9220    21.4440 hn         1 KOI       0.149000
     27 H10          7.4400     2.5120    19.9860 h4         1 KOI       0.055100
     28 H11          5.2240    -1.0240    17.4410 ha         1 KOI       0.124000
@<TRIPOS>BOND
     1     1     7 ar  
     2     1    16 ar  
     3     2     3 1   
     4     2     9 ar  
     5     2    12 ar  
     6     3     4 1   
     7     3    18 1   
     8     3    19 1   
     9     4     8 2   
    10     4    15 1   
    11     5     6 ar  
    12     5    15 1   
    13     5    16 ar  
    14     6    17 ar  
    15     6    20 1   
    16     7    17 ar  
    17     7    21 1   
    18     9    10 ar  
    19     9    22 1   
    20    10    11 ar  
    21    10    23 1   
    22    11    13 ar  
    23    11    24 1   
    24    12    13 ar  
    25    12    25 1   
    26    13    14 1   
    27    15    26 1   
    28    16    27 1   
    29    17    28 1   
@<TRIPOS>SUBSTRUCTURE
     1 KOI         1 TEMP              0 ****  ****    0 ROOT
