@<TRIPOS>MOLECULE
KOI
   28    29     1     0     0
SMALL
No Charge or Current Charge


@<TRIPOS>ATOM
      1 N1           6.2220     2.0950    18.2150 nb         1 KOI      -0.644000
      2 C4          10.3860    -0.3550    22.8870 ca         1 KOI      -0.080300
      3 C5           8.9200    -0.0090    23.1350 c3         1 KOI      -0.109100
      4 C6           8.3480     0.8070    21.9690 c          1 KOI       0.606100
      5 C7           6.8930     0.4430    19.8830 ca         1 KOI      -0.075000
      6 C8           6.1900    -0.5580    19.1880 ca         1 KOI      -0.132000
      7 C10          5.5510     1.1210    17.5600 ca         1 KOI       0.308900
      8 O            8.5780     2.0050    21.8500 o          1 KOI      -0.572100
      9 C3          11.4040     0.5260    23.3010 ca         1 KOI      -0.085000
     10 C2          12.7550     0.2100    23.0670 ca         1 KOI      -0.098000
     11 C1          13.0940    -0.9890    22.4170 ca         1 KOI      -0.094000
     12 C12         10.7330    -1.5550    22.2340 ca         1 KOI      -0.100000
     13 C           12.0820    -1.8690    22.0010 ca         1 KOI       0.126000
     14 Cl          12.5050    -3.3680    21.1840 cl         1 KOI      -0.211000
     15 N            7.5770     0.0730    21.0760 ns         1 KOI      -0.142000
     16 C11          6.8790     1.7600    19.3540 ca         1 KOI       0.320900
     17 C9           5.5100    -0.2100    18.0090 ca         1 KOI      -0.135000
     18 H1           8.8330     0.5840    24.0520 hc         1 KOI       0.073200
     19 H2           8.3480    -0.9380    23.2520 hc         1 KOI       0.073200
     20 H3           6.1690    -1.5840    19.5510 ha         1 KOI       0.114000
     21 H4           5.0320     1.4150    16.6490 h4         1 KOI       0.022100
     22 H5          11.1510     1.4580    23.8030 ha         1 KOI       0.127000
     23 H6          13.5370     0.8950    23.3900 ha         1 KOI       0.123000
     24 H7          14.1370    -1.2350    22.2340 ha         1 KOI       0.133000
     25 H8           9.9600    -2.2460    21.9050 ha         1 KOI       0.122000
     26 H9           7.4880    -0.9070    21.3140 hn         1 KOI       0.149000
     27 H10          7.4010     2.5810    19.8400 h4         1 KOI       0.055100
     28 H11          4.9560    -0.9560    17.4450 ha         1 KOI       0.124000
@<TRIPOS>BOND
     1     1     7 ar  
     2     1    16 ar  
     3     2     3 1   
     4     2     9 ar  
     5     2    12 ar  
     6     3     4 1   
     7     3    18 1   
     8     3    19 1   
     9     4     8 2   
    10     4    15 1   
    11     5     6 ar  
    12     5    15 1   
    13     5    16 ar  
    14     6    17 ar  
    15     6    20 1   
    16     7    17 ar  
    17     7    21 1   
    18     9    10 ar  
    19     9    22 1   
    20    10    11 ar  
    21    10    23 1   
    22    11    13 ar  
    23    11    24 1   
    24    12    13 ar  
    25    12    25 1   
    26    13    14 1   
    27    15    26 1   
    28    16    27 1   
    29    17    28 1   
@<TRIPOS>SUBSTRUCTURE
     1 KOI         1 TEMP              0 ****  ****    0 ROOT
