@<TRIPOS>MOLECULE
KOJ
   16    16     1     0     0
SMALL
No Charge or Current Charge


@<TRIPOS>ATOM
      1 C1           1.5020     0.3120    -0.7610 cc         1 KOJ      -0.121900
      2 C2           0.4790    -0.0510    -1.6190 cd         1 KOJ      -0.041100
      3 C3          -0.9180    -0.2930    -1.1360 c          1 KOJ       0.588500
      4 C4          -1.1060    -0.1150     0.2940 cc         1 KOJ      -0.385200
      5 C5          -0.0690     0.2440     1.1220 cd         1 KOJ       0.124900
      6 C6          -0.1660     0.4550     2.6200 c3         1 KOJ       0.209800
      7 O2           0.6810    -0.2110    -2.9580 oh         1 KOJ      -0.490100
      8 O3          -1.8490    -0.6150    -1.8650 o          1 KOJ      -0.516100
      9 O5           1.1780     0.4440     0.5750 os         1 KOJ      -0.175200
     10 O6          -0.6340    -0.7240     3.2980 oh         1 KOJ      -0.641000
     11 H1           2.5430     0.5120    -0.9940 h4         1 KOJ       0.229000
     12 H4          -2.1080    -0.2870     0.6690 ha         1 KOJ       0.215000
     13 H6C1        -0.8470     1.2970     2.8050 h1         1 KOJ       0.047200
     14 H6C2         0.8220     0.7460     3.0020 h1         1 KOJ       0.047200
     15 H2           1.6270    -0.0270    -3.1510 ho         1 KOJ       0.456000
     16 H6          -0.6690    -0.5070     4.2560 ho         1 KOJ       0.453000
@<TRIPOS>BOND
     1     1     2 2   
     2     1     9 1   
     3     1    11 1   
     4     2     3 1   
     5     2     7 1   
     6     3     4 1   
     7     3     8 2   
     8     4     5 2   
     9     4    12 1   
    10     5     6 1   
    11     5     9 1   
    12     6    10 1   
    13     6    13 1   
    14     6    14 1   
    15     7    15 1   
    16    10    16 1   
@<TRIPOS>SUBSTRUCTURE
     1 KOJ         1 TEMP              0 ****  ****    0 ROOT
