@<TRIPOS>MOLECULE
KOJ
   16    16     1     0     0
SMALL
abcg2


@<TRIPOS>ATOM
      1 C1           1.4080     0.0290    -0.5580 cc         1 KOJ      -0.121900
      2 C2           0.4960    -0.0520    -1.5440 cd         1 KOJ      -0.041100
      3 C3          -0.9320    -0.0010    -1.2280 c          1 KOJ       0.588500
      4 C4          -1.2000     0.1180     0.1870 cc         1 KOJ      -0.385200
      5 C5          -0.2080     0.1970     1.0960 cd         1 KOJ       0.124900
      6 C6          -0.4030     0.3660     2.5690 c3         1 KOJ       0.209800
      7 O2           0.7920    -0.1800    -2.8450 oh         1 KOJ      -0.490100
      8 O3          -1.7960    -0.0620    -2.0940 o          1 KOJ      -0.516100
      9 O5           1.0750     0.1570     0.7390 os         1 KOJ      -0.175200
     10 O6           0.2860    -0.6590     3.2370 oh         1 KOJ      -0.641000
     11 H1           2.4790    -0.0030    -0.7080 h4         1 KOJ       0.229000
     12 H4          -2.2270     0.1440     0.5240 ha         1 KOJ       0.215000
     13 H6C1        -1.4780     0.3550     2.7740 h1         1 KOJ       0.047200
     14 H6C2        -0.0340     1.3600     2.8510 h1         1 KOJ       0.047200
     15 H2           1.7460    -0.2240    -2.9810 ho         1 KOJ       0.456000
     16 H6           0.4620    -0.3660     4.1360 ho         1 KOJ       0.453000
@<TRIPOS>BOND
     1     1     2 2   
     2     1     9 1   
     3     1    11 1   
     4     2     3 1   
     5     2     7 1   
     6     3     4 1   
     7     3     8 2   
     8     4     5 2   
     9     4    12 1   
    10     5     6 1   
    11     5     9 1   
    12     6    10 1   
    13     6    13 1   
    14     6    14 1   
    15     7    15 1   
    16    10    16 1   
@<TRIPOS>SUBSTRUCTURE
     1 KOJ         1 TEMP              0 ****  ****    0 ROOT
