@<TRIPOS>MOLECULE
KOK
   26    28     1     0     0
SMALL
bcc


@<TRIPOS>ATOM
      1 OAB         -0.6510     1.9660     0.4760 o          1 KOK      -0.560100
      2 CAA         -0.8350     0.8200     0.1370 c          1 KOK       0.710900
      3 NAG          0.1090    -0.1040    -0.0850 n          1 KOK      -0.361000
      4 CAF         -0.0690    -1.5700    -0.1530 c5         1 KOK       0.113000
      5 CAE          1.2700    -2.1270     0.3360 c5         1 KOK      -0.047100
      6 CAD          2.2100    -0.9790     0.1250 ca         1 KOK      -0.122300
      7 CAC          1.4890     0.1930    -0.0780 ca         1 KOK       0.051600
      8 CAK          2.1260     1.4080    -0.2810 ca         1 KOK      -0.123000
      9 CAJ          3.5180     1.4190    -0.2710 ca         1 KOK      -0.109000
     10 CAI          4.2480     0.2560    -0.0630 ca         1 KOK      -0.141000
     11 CAH          3.5910    -0.9540     0.1380 ca         1 KOK      -0.092000
     12 H2          -0.9040    -1.8890     0.4650 h1         1 KOK       0.071200
     13 H3           1.2270    -2.3970     1.3940 hc         1 KOK       0.066200
     14 H4           1.5820     2.3230    -0.4540 ha         1 KOK       0.160000
     15 H5           4.0350     2.3560    -0.4350 ha         1 KOK       0.137000
     16 H6           5.3290     0.2910    -0.0610 ha         1 KOK       0.136000
     17 H7           4.1550    -1.8650     0.2990 ha         1 KOK       0.136000
     18 N1          -2.1810     0.3800    -0.0490 n          1 KOK       0.061300
     19 C2          -3.2650     0.8580     0.6020 cc         1 KOK      -0.192600
     20 C1          -4.3110     0.2360    -0.0120 cd         1 KOK       0.248200
     21 N3          -3.8170    -0.5520    -1.0000 nd         1 KOK      -0.345000
     22 N2          -2.5420    -0.4600    -1.0210 nc         1 KOK      -0.191800
     23 H1          -3.2090     1.5560     1.4180 h4         1 KOK       0.201000
     24 H8          -5.3640     0.3090     0.1950 h4         1 KOK       0.054100
     25 H9          -0.2640    -1.8660    -1.1820 h1         1 KOK       0.071200
     26 H10          1.5550    -3.0210    -0.2180 hc         1 KOK       0.066200
@<TRIPOS>BOND
     1     1     2 2   
     2     2     3 1   
     3     2    18 1   
     4     3     4 1   
     5     3     7 1   
     6     4     5 1   
     7     4    12 1   
     8     4    25 1   
     9     5     6 1   
    10     5    13 1   
    11     5    26 1   
    12     6     7 ar  
    13     6    11 ar  
    14     7     8 ar  
    15     8     9 ar  
    16     8    14 1   
    17     9    10 ar  
    18     9    15 1   
    19    10    11 ar  
    20    10    16 1   
    21    11    17 1   
    22    18    19 1   
    23    18    22 1   
    24    19    20 2   
    25    19    23 1   
    26    20    21 1   
    27    20    24 1   
    28    21    22 2   
@<TRIPOS>SUBSTRUCTURE
     1 KOK         1 TEMP              0 ****  ****    0 ROOT
