@<TRIPOS>MOLECULE
KOK
   26    28     1     0     0
SMALL
No Charge or Current Charge


@<TRIPOS>ATOM
      1 OAB         -0.7200     1.9830     0.0670 o          1 KOK      -0.560100
      2 CAA         -0.9310     0.7730     0.0310 c          1 KOK       0.643900
      3 NAG          0.1690    -0.1510     0.0070 n          1 KOK      -0.201400
      4 CAF         -0.0360    -1.6300    -0.0370 c5         1 KOK       0.113000
      5 CAE          1.4280    -2.2270    -0.0490 c5         1 KOK      -0.047100
      6 CAD          2.2930    -0.9860    -0.0100 ca         1 KOK      -0.122300
      7 CAC          1.5560     0.1810     0.0220 ca         1 KOK      -0.041000
      8 CAK          2.1960     1.4380     0.0600 ca         1 KOK      -0.105000
      9 CAJ          3.6050     1.4810     0.0660 ca         1 KOK      -0.091000
     10 CAI          4.3530     0.2870     0.0340 ca         1 KOK      -0.123000
     11 CAH          3.6970    -0.9580    -0.0050 ca         1 KOK      -0.074000
     12 H2          -0.5880    -1.9830     0.8450 h1         1 KOK       0.071200
     13 H3           1.6030    -2.8760     0.8150 hc         1 KOK       0.066200
     14 H4           1.6430     2.3710     0.0860 ha         1 KOK       0.142000
     15 H5           4.1170     2.4410     0.0960 ha         1 KOK       0.119000
     16 H6           5.4400     0.3270     0.0380 ha         1 KOK       0.118000
     17 H7           4.2690    -1.8820    -0.0300 ha         1 KOK       0.118000
     18 N1          -2.2900     0.3130     0.0130 n          1 KOK       0.112000
     19 C2          -3.4090     1.1160     0.0330 cc         1 KOK      -0.160000
     20 C1          -4.5520     0.3650     0.0070 cd         1 KOK       0.182900
     21 N3          -4.1460    -0.9620    -0.0310 nd         1 KOK      -0.345000
     22 N2          -2.8390    -0.9390    -0.0260 nc         1 KOK      -0.191800
     23 H1          -3.2650     2.1880     0.0650 h4         1 KOK       0.183000
     24 H8          -5.5900     0.6740     0.0130 h4         1 KOK       0.054100
     25 H9          -0.5820    -1.9310    -0.9410 h1         1 KOK       0.071200
     26 H10          1.6090    -2.8250    -0.9500 hc         1 KOK       0.066200
@<TRIPOS>BOND
     1     1     2 2   
     2     2     3 1   
     3     2    18 1   
     4     3     4 1   
     5     3     7 1   
     6     4     5 1   
     7     4    12 1   
     8     4    25 1   
     9     5     6 1   
    10     5    13 1   
    11     5    26 1   
    12     6     7 ar  
    13     6    11 ar  
    14     7     8 ar  
    15     8     9 ar  
    16     8    14 1   
    17     9    10 ar  
    18     9    15 1   
    19    10    11 ar  
    20    10    16 1   
    21    11    17 1   
    22    18    19 1   
    23    18    22 1   
    24    19    20 2   
    25    19    23 1   
    26    20    21 1   
    27    20    24 1   
    28    21    22 2   
@<TRIPOS>SUBSTRUCTURE
     1 KOK         1 TEMP              0 ****  ****    0 ROOT
