@<TRIPOS>MOLECULE
KOM
   29    31     1     0     0
SMALL
No Charge or Current Charge


@<TRIPOS>ATOM
      1 O15          0.8920    -3.7000     0.2320 o          1 KOM      -0.484000
      2 C13          0.7220    -2.4950     0.1280 c          1 KOM       0.681300
      3 O14          1.7680    -1.6400    -0.0820 os         1 KOM      -0.360200
      4 C4           1.6460    -0.2710    -0.1480 ca         1 KOM       0.125100
      5 C5           2.8220     0.5010    -0.2400 ca         1 KOM       0.020100
      6 O9           4.0520    -0.1120    -0.3110 oh         1 KOM      -0.554100
      7 C6           2.7340     1.9040    -0.2430 ca         1 KOM       0.166100
      8 O10          3.8720     2.6490    -0.3250 oh         1 KOM      -0.524100
      9 C1           1.4870     2.5280    -0.1290 ca         1 KOM      -0.149000
     10 C12         -0.6080    -1.8840     0.1700 cc         1 KOM      -0.332200
     11 C11         -0.8180    -0.5350    -0.0020 cd         1 KOM       0.107600
     12 C3           0.3740     0.3410    -0.0880 ca         1 KOM      -0.148800
     13 C2           0.3150     1.7560    -0.0390 ca         1 KOM      -0.046000
     14 C18         -2.2040    -0.0010     0.0020 ca         1 KOM      -0.077800
     15 C24         -3.1950    -0.5890     0.8220 ca         1 KOM      -0.089000
     16 C23         -4.5170    -0.1120     0.8110 ca         1 KOM      -0.111500
     17 C22         -4.8780     0.9460    -0.0370 ca         1 KOM      -0.097000
     18 C21         -3.9150     1.5200    -0.8800 ca         1 KOM      -0.111500
     19 C20         -2.5920     1.0450    -0.8670 ca         1 KOM      -0.089000
     20 HO9          3.9020    -1.0860    -0.2830 ho         1 KOM       0.499000
     21 HO10         4.6120     2.0020    -0.3760 ho         1 KOM       0.491000
     22 H1           1.4260     3.6130    -0.0970 ha         1 KOM       0.139000
     23 H12         -1.4190    -2.5920     0.2750 ha         1 KOM       0.218000
     24 H2          -0.6250     2.2800     0.1020 ha         1 KOM       0.132000
     25 H24         -2.9390    -1.4010     1.4990 ha         1 KOM       0.121000
     26 H23         -5.2630    -0.5650     1.4610 ha         1 KOM       0.118000
     27 H22         -5.9020     1.3130    -0.0480 ha         1 KOM       0.117000
     28 H21         -4.1950     2.3250    -1.5560 ha         1 KOM       0.118000
     29 H20         -1.8780     1.4710    -1.5680 ha         1 KOM       0.121000
@<TRIPOS>BOND
     1     1     2 2   
     2     2     3 1   
     3     2    10 1   
     4     3     4 1   
     5     4     5 ar  
     6     4    12 ar  
     7     5     6 1   
     8     5     7 ar  
     9     6    20 1   
    10     7     8 1   
    11     7     9 ar  
    12     8    21 1   
    13     9    13 ar  
    14     9    22 1   
    15    10    11 2   
    16    10    23 1   
    17    11    12 1   
    18    11    14 1   
    19    12    13 ar  
    20    13    24 1   
    21    14    15 ar  
    22    14    19 ar  
    23    15    16 ar  
    24    15    25 1   
    25    16    17 ar  
    26    16    26 1   
    27    17    18 ar  
    28    17    27 1   
    29    18    19 ar  
    30    18    28 1   
    31    19    29 1   
@<TRIPOS>SUBSTRUCTURE
     1 KOM         1 TEMP              0 ****  ****    0 ROOT
