@<TRIPOS>MOLECULE
KOM
   29    31     1     0     0
SMALL
bcc


@<TRIPOS>ATOM
      1 O15          0.9330    -3.6620    -0.1130 o          1 KOM      -0.559500
      2 C13          0.6820    -2.4830    -0.1060 c          1 KOM       0.756800
      3 O14          1.7340    -1.6230    -0.1710 os         1 KOM      -0.360200
      4 C4           1.5870    -0.2770    -0.1380 ca         1 KOM       0.125100
      5 C5           2.7630     0.4590    -0.1590 ca         1 KOM       0.020100
      6 O9           3.9940    -0.0870    -0.2240 oh         1 KOM      -0.515100
      7 C6           2.6810     1.8510    -0.1030 ca         1 KOM       0.166100
      8 O10          3.7810     2.6160    -0.1190 oh         1 KOM      -0.485100
      9 C1           1.4340     2.4710    -0.0180 ca         1 KOM      -0.167000
     10 C12         -0.6310    -1.8890    -0.0550 cc         1 KOM      -0.282200
     11 C11         -0.8190    -0.5490    -0.0540 cd         1 KOM       0.107600
     12 C3           0.3290     0.3270    -0.0740 ca         1 KOM      -0.148800
     13 C2           0.2780     1.7220    -0.0000 ca         1 KOM      -0.064000
     14 C18         -2.1900    -0.0020    -0.0270 ca         1 KOM      -0.077800
     15 C24         -3.0710    -0.3840     0.9830 ca         1 KOM      -0.107000
     16 C23         -4.3720     0.0990     0.9980 ca         1 KOM      -0.129500
     17 C22         -4.8080     0.9580    -0.0020 ca         1 KOM      -0.115000
     18 C21         -3.9370     1.3360    -1.0160 ca         1 KOM      -0.129500
     19 C20         -2.6330     0.8640    -1.0270 ca         1 KOM      -0.107000
     20 HO9          3.9580    -1.0510    -0.2300 ho         1 KOM       0.460000
     21 HO10         4.5800     2.0760    -0.1690 ho         1 KOM       0.452000
     22 H1           1.3870     3.5500     0.0390 ha         1 KOM       0.157000
     23 H12         -1.4680    -2.5740    -0.0510 ha         1 KOM       0.168000
     24 H2          -0.6750     2.2260     0.0830 ha         1 KOM       0.150000
     25 H24         -2.7350    -1.0490     1.7690 ha         1 KOM       0.139000
     26 H23         -5.0450    -0.1980     1.7910 ha         1 KOM       0.136000
     27 H22         -5.8230     1.3320     0.0090 ha         1 KOM       0.135000
     28 H21         -4.2730     1.9970    -1.8030 ha         1 KOM       0.136000
     29 H20         -1.9640     1.1560    -1.8270 ha         1 KOM       0.139000
@<TRIPOS>BOND
     1     1     2 2   
     2     2     3 1   
     3     2    10 1   
     4     3     4 1   
     5     4     5 ar  
     6     4    12 ar  
     7     5     6 1   
     8     5     7 ar  
     9     6    20 1   
    10     7     8 1   
    11     7     9 ar  
    12     8    21 1   
    13     9    13 ar  
    14     9    22 1   
    15    10    11 2   
    16    10    23 1   
    17    11    12 1   
    18    11    14 1   
    19    12    13 ar  
    20    13    24 1   
    21    14    15 ar  
    22    14    19 ar  
    23    15    16 ar  
    24    15    25 1   
    25    16    17 ar  
    26    16    26 1   
    27    17    18 ar  
    28    17    27 1   
    29    18    19 ar  
    30    18    28 1   
    31    19    29 1   
@<TRIPOS>SUBSTRUCTURE
     1 KOM         1 TEMP              0 ****  ****    0 ROOT
