@<TRIPOS>MOLECULE
KON
   49    52     1     0     0
SMALL
No Charge or Current Charge


@<TRIPOS>ATOM
      1 N1         -16.4630     7.8500    -1.8530 na         1 KON       0.123800
      2 N3         -15.5770     7.4420    -2.8070 nc         1 KON      -0.186800
      3 C4         -24.7940     8.1870    -2.5290 ca         1 KON       0.191000
      4 C5         -23.4040     7.9990    -2.5860 ca         1 KON      -0.036000
      5 C6         -22.6070     8.8540    -3.3750 ca         1 KON      -0.117000
      6 C7         -20.2870     8.6410    -1.6970 c6         1 KON       0.280300
      7 C8         -19.9540     6.2200    -1.5500 c6         1 KON       0.151300
      8 C10        -18.4170     6.3640    -1.3030 c6         1 KON       0.134300
      9 C13        -14.4880     8.3230    -1.1240 cd         1 KON       0.239500
     10 C15        -12.0070     8.6200    -0.8350 ca         1 KON      -0.131000
     11 C17        -11.0830     9.6410     1.1770 ca         1 KON       0.090000
     12 C20        -18.7510     8.9070    -1.5030 c6         1 KON       0.147300
     13 C1         -25.3990     9.2230    -3.2600 ca         1 KON      -0.061000
     14 C11        -17.9300     7.6730    -2.0000 c6         1 KON       0.065300
     15 C12        -15.8070     8.4030    -0.7760 cc         1 KON      -0.175000
     16 C14        -13.3210     8.7750    -0.3350 ca         1 KON      -0.059500
     17 C16        -10.8990     9.0500    -0.0840 ca         1 KON       0.157500
     18 C18        -12.3840     9.7990     1.6830 ca         1 KON       0.157500
     19 C19        -13.4950     9.3710     0.9350 ca         1 KON      -0.131000
     20 C2         -24.6080    10.0710    -4.0570 ca         1 KON      -0.124000
     21 C3         -23.2160     9.8830    -4.1160 ca         1 KON      -0.057000
     22 C9         -20.5610     4.9520    -0.8640 c3         1 KON       0.172600
     23 F1          -9.6530     8.8900    -0.5860 f          1 KON      -0.157500
     24 F2         -12.5780    10.3660     2.8960 f          1 KON      -0.157500
     25 N2         -14.3830     7.7310    -2.3650 nd         1 KON      -0.344000
     26 O1         -20.6570     7.3950    -1.0570 os         1 KON      -0.419000
     27 O2         -21.9680     4.7790    -1.1350 oh         1 KON      -0.726000
     28 O3         -18.1140     6.3900     0.1120 oh         1 KON      -0.714000
     29 O4         -18.3220    10.1160    -2.1760 oh         1 KON      -0.693000
     30 S1         -20.8310     8.6410    -3.4800 ss         1 KON      -0.239000
     31 H1         -22.9600     7.1830    -2.0260 ha         1 KON       0.160000
     32 H2         -20.8410     9.4630    -1.2200 h2         1 KON       0.100700
     33 H3         -20.1340     6.1150    -2.6290 h1         1 KON       0.083700
     34 H4         -17.9150     5.5070    -1.7800 h1         1 KON       0.066700
     35 H5         -11.8340     8.1660    -1.8080 ha         1 KON       0.148000
     36 H6         -18.5800     9.0130    -0.4210 h1         1 KON       0.062700
     37 H7         -26.4750     9.3630    -3.2120 ha         1 KON       0.129000
     38 H8         -18.1240     7.5670    -3.0760 h1         1 KON       0.120700
     39 H9         -16.3040     8.7880     0.1020 h4         1 KON       0.173000
     40 H10        -14.4880     9.5070     1.3540 ha         1 KON       0.148000
     41 H11        -25.0740    10.8710    -4.6280 ha         1 KON       0.121000
     42 H12        -22.6080    10.5410    -4.7340 ha         1 KON       0.129000
     43 H13        -20.0000     4.0750    -1.2140 h1         1 KON       0.044200
     44 H14        -20.3950     5.0330     0.2190 h1         1 KON       0.044200
     45 H15        -22.2710     4.0070    -0.6010 ho         1 KON       0.515000
     46 H16        -17.2220     5.9880     0.2340 ho         1 KON       0.513000
     47 H17        -18.6900    10.8850    -1.6800 ho         1 KON       0.517000
     48 F3         -10.0140    10.0550     1.9000 f          1 KON      -0.143000
     49 I1         -26.0130     6.8710    -1.3120 i          1 KON      -0.317000
@<TRIPOS>BOND
     1     1     2 1   
     2     1    14 1   
     3     1    15 1   
     4     2    25 2   
     5     3     4 ar  
     6     3    13 ar  
     7     3    49 1   
     8     4     5 ar  
     9     4    31 1   
    10     5    21 ar  
    11     5    30 1   
    12     6    12 1   
    13     6    26 1   
    14     6    30 1   
    15     6    32 1   
    16     7     8 1   
    17     7    22 1   
    18     7    26 1   
    19     7    33 1   
    20     8    14 1   
    21     8    28 1   
    22     8    34 1   
    23     9    15 2   
    24     9    16 1   
    25     9    25 1   
    26    10    16 ar  
    27    10    17 ar  
    28    10    35 1   
    29    11    17 ar  
    30    11    18 ar  
    31    11    48 1   
    32    12    14 1   
    33    12    29 1   
    34    12    36 1   
    35    13    20 ar  
    36    13    37 1   
    37    14    38 1   
    38    15    39 1   
    39    16    19 ar  
    40    17    23 1   
    41    18    19 ar  
    42    18    24 1   
    43    19    40 1   
    44    20    21 ar  
    45    20    41 1   
    46    21    42 1   
    47    22    27 1   
    48    22    43 1   
    49    22    44 1   
    50    27    45 1   
    51    28    46 1   
    52    29    47 1   
@<TRIPOS>SUBSTRUCTURE
     1 KON         1 TEMP              0 ****  ****    0 ROOT
