@<TRIPOS>MOLECULE
KON
   49    52     1     0     0
SMALL
abcg2


@<TRIPOS>ATOM
      1 N1         -16.5400     7.9520    -1.8100 na         1 KON       0.123800
      2 N3         -15.6770     7.5790    -2.7710 nc         1 KON      -0.186800
      3 C4         -24.6230     7.8400    -2.7170 ca         1 KON       0.191000
      4 C5         -23.2400     7.7450    -2.8030 ca         1 KON      -0.036000
      5 C6         -22.5290     8.7990    -3.3840 ca         1 KON      -0.117000
      6 C7         -20.2730     8.7310    -1.7550 c6         1 KON       0.280300
      7 C8         -19.9680     6.3750    -1.4740 c6         1 KON       0.151300
      8 C10        -18.4670     6.5010    -1.2530 c6         1 KON       0.134300
      9 C13        -14.5450     8.3540    -1.0830 cd         1 KON       0.239500
     10 C15        -12.0840     8.5510    -0.8710 ca         1 KON      -0.131000
     11 C17        -11.0780     9.4490     1.1320 ca         1 KON       0.090000
     12 C20        -18.7620     8.9910    -1.6000 c6         1 KON       0.147300
     13 C1         -25.3160     8.9360    -3.2170 ca         1 KON      -0.061000
     14 C11        -17.9700     7.7520    -2.0050 c6         1 KON       0.065300
     15 C12        -15.8800     8.4420    -0.7420 cc         1 KON      -0.175000
     16 C14        -13.3570     8.7330    -0.3200 ca         1 KON      -0.059500
     17 C16        -10.9700     8.9100    -0.1410 ca         1 KON       0.157500
     18 C18        -12.3460     9.6260     1.6660 ca         1 KON       0.157500
     19 C19        -13.4800     9.2780     0.9630 ca         1 KON      -0.131000
     20 C2         -24.5960     9.9680    -3.8090 ca         1 KON      -0.124000
     21 C3         -23.2090     9.9090    -3.8870 ca         1 KON      -0.057000
     22 C9         -20.5820     5.2160    -0.7230 c3         1 KON       0.172600
     23 F1          -9.7390     8.7420    -0.6560 f          1 KON      -0.157500
     24 F2         -12.4490    10.1490     2.9010 f          1 KON      -0.157500
     25 N2         -14.4750     7.8190    -2.3360 nd         1 KON      -0.344000
     26 O1         -20.6450     7.5700    -1.0600 os         1 KON      -0.419000
     27 O2         -21.8770     4.9710    -1.2700 oh         1 KON      -0.726000
     28 O3         -18.1990     6.5860     0.1410 oh         1 KON      -0.714000
     29 O4         -18.2970    10.0780    -2.3750 oh         1 KON      -0.693000
     30 S1         -20.7560     8.7320    -3.5500 ss         1 KON      -0.239000
     31 H1         -22.7230     6.8780    -2.4210 ha         1 KON       0.160000
     32 H2         -20.8310     9.5450    -1.2950 h2         1 KON       0.100700
     33 H3         -20.1400     6.2270    -2.5460 h1         1 KON       0.083700
     34 H4         -17.9770     5.6250    -1.6830 h1         1 KON       0.066700
     35 H5         -11.9580     8.1330    -1.8590 ha         1 KON       0.148000
     36 H6         -18.6060     9.1820    -0.5350 h1         1 KON       0.062700
     37 H7         -26.3930     8.9890    -3.1490 ha         1 KON       0.129000
     38 H8         -18.0910     7.5790    -3.0750 h1         1 KON       0.120700
     39 H9         -16.3830     8.8000     0.1370 h4         1 KON       0.173000
     40 H10        -14.4440     9.4340     1.4260 ha         1 KON       0.148000
     41 H11        -25.1220    10.8290    -4.2020 ha         1 KON       0.121000
     42 H12        -22.6530    10.7230    -4.3310 ha         1 KON       0.129000
     43 H13        -19.9370     4.3390    -0.8420 h1         1 KON       0.044200
     44 H14        -20.6440     5.4600     0.3400 h1         1 KON       0.044200
     45 H15        -22.3680     4.4070    -0.6610 ho         1 KON       0.515000
     46 H16        -17.3470     6.1730     0.3230 ho         1 KON       0.513000
     47 H17        -18.6610    10.8970    -2.0160 ho         1 KON       0.517000
     48 F3          -9.9860     9.7900     1.8300 f          1 KON      -0.143000
     49 I1         -25.7070     6.2600    -1.8110 i          1 KON      -0.317000
@<TRIPOS>BOND
     1     1     2 1   
     2     1    14 1   
     3     1    15 1   
     4     2    25 2   
     5     3     4 ar  
     6     3    13 ar  
     7     3    49 1   
     8     4     5 ar  
     9     4    31 1   
    10     5    21 ar  
    11     5    30 1   
    12     6    12 1   
    13     6    26 1   
    14     6    30 1   
    15     6    32 1   
    16     7     8 1   
    17     7    22 1   
    18     7    26 1   
    19     7    33 1   
    20     8    14 1   
    21     8    28 1   
    22     8    34 1   
    23     9    15 2   
    24     9    16 1   
    25     9    25 1   
    26    10    16 ar  
    27    10    17 ar  
    28    10    35 1   
    29    11    17 ar  
    30    11    18 ar  
    31    11    48 1   
    32    12    14 1   
    33    12    29 1   
    34    12    36 1   
    35    13    20 ar  
    36    13    37 1   
    37    14    38 1   
    38    15    39 1   
    39    16    19 ar  
    40    17    23 1   
    41    18    19 ar  
    42    18    24 1   
    43    19    40 1   
    44    20    21 ar  
    45    20    41 1   
    46    21    42 1   
    47    22    27 1   
    48    22    43 1   
    49    22    44 1   
    50    27    45 1   
    51    28    46 1   
    52    29    47 1   
@<TRIPOS>SUBSTRUCTURE
     1 KON         1 TEMP              0 ****  ****    0 ROOT
