@<TRIPOS>MOLECULE
KOO
  126   133     1     0     0
SMALL
abcg2


@<TRIPOS>ATOM
      1 C1          60.9430    -3.5000    59.3250 ca         1 KOO      -0.044300
      2 C2          61.4430    -4.7860    59.3560 ca         1 KOO      -0.064000
      3 C3          62.6490    -5.0800    58.7080 ca         1 KOO      -0.114800
      4 C4          63.3390    -4.0680    58.0200 ca         1 KOO      -0.153000
      5 C5          64.4810    -6.2590    57.9160 cc         1 KOO      -0.193600
      6 C6          65.4910    -7.2960    57.6160 c          1 KOO       0.649300
      7 C12         66.2050    -9.8940    56.2190 c          1 KOO       0.606100
      8 C13         68.7220   -10.0650    56.3960 c5         1 KOO       0.114000
      9 C14         69.6360   -10.8290    55.4490 c5         1 KOO      -0.095400
     10 C15         69.0640   -10.5360    54.0640 c5         1 KOO      -0.079400
     11 C16         67.5500   -10.4030    54.3020 c5         1 KOO       0.037700
     12 C17         66.8460   -11.7290    54.0160 c          1 KOO       0.609100
     13 C18         66.0880   -10.7900    51.8980 ca         1 KOO      -0.046000
     14 C19         65.0280    -9.8960    51.9900 ca         1 KOO      -0.110500
     15 C20         64.8860    -8.8900    51.0520 ca         1 KOO      -0.078500
     16 C21         65.8030    -8.7600    50.0080 ca         1 KOO      -0.131500
     17 O9          66.5710    -6.9880    57.1320 o          1 KOO      -0.638100
     18 C49         63.3280    -6.3310    58.6280 cd         1 KOO      -0.095200
     19 S           64.8030    -4.6620    57.3140 ss         1 KOO       0.042400
     20 C50         62.8350    -2.7710    57.9740 ca         1 KOO      -0.135000
     21 C51         61.6500    -2.5020    58.6240 ca         1 KOO      -0.020000
     22 C           59.6600    -3.1220    60.0050 c3         1 KOO      -0.044700
     23 F1          59.1090    -4.2570    60.5690 f          1 KOO      -0.158500
     24 P           59.8040    -1.7690    61.3340 p5         1 KOO       1.260500
     25 O2          60.1120    -0.5160    60.5150 o          1 KOO      -0.896833
     26 O1          60.9510    -2.2960    62.1910 o          1 KOO      -0.896833
     27 O           58.4340    -1.7740    62.0010 o          1 KOO      -0.896833
     28 F           58.7580    -2.7650    59.0140 f          1 KOO      -0.158500
     29 N           65.1470    -8.5570    57.9140 ns         1 KOO      -0.490900
     30 C7          66.0450    -9.6640    57.7160 c3         1 KOO       0.061700
     31 C8          65.5350   -10.9300    58.4720 c3         1 KOO      -0.046000
     32 C9          66.5940   -12.0280    58.3750 c3         1 KOO      -0.089433
     33 N1          67.4330   -10.0840    55.7120 n          1 KOO      -0.392800
     34 O7          66.9140   -12.6520    54.8120 o          1 KOO      -0.604100
     35 N2          66.1910   -11.8480    52.8390 n          1 KOO      -0.245400
     36 C26         67.0090   -10.6660    50.8640 ca         1 KOO      -0.110500
     37 C25         66.8660    -9.6590    49.9230 ca         1 KOO      -0.078500
     38 C22         65.6730    -7.7090    48.9970 cc         1 KOO       0.477900
     39 S1          64.8910    -6.2000    49.3290 ss         1 KOO       0.022600
     40 C24         65.2250    -5.6900    47.7310 cc         1 KOO      -0.282000
     41 C23         65.8980    -6.6690    47.0730 cd         1 KOO       0.272900
     42 N3          66.1460    -7.7980    47.7920 nd         1 KOO      -0.652000
     43 C27         65.5070   -13.1000    52.5170 c3         1 KOO       0.118000
     44 C28         66.4260   -14.0860    51.8080 c3         1 KOO      -0.179400
     45 C29         65.6780   -15.3430    51.4120 c          1 KOO       0.609100
     46 O6          64.5430   -15.5390    51.8270 o          1 KOO      -0.594100
     47 N4          66.3000   -16.2040    50.5740 n          1 KOO      -0.411800
     48 C30         65.6570   -17.4500    50.2100 c3         1 KOO       0.075300
     49 C31         67.7200   -16.1570    50.2730 c3         1 KOO       0.103000
     50 C32         68.0190   -16.2390    48.7670 c3         1 KOO      -0.093400
     51 C33         68.7730   -17.5190    48.3770 c3         1 KOO       0.003700
     52 C34         68.7510   -17.7420    46.9420 c1         1 KOO      -0.100100
     53 C35         68.7940   -17.9030    45.7490 cg         1 KOO      -0.139000
     54 C36         68.8490   -17.9650    44.3280 ca         1 KOO       0.049000
     55 C41         68.9330   -16.7840    43.6010 ca         1 KOO      -0.061300
     56 C42         68.9740   -15.3820    44.0990 c5         1 KOO       0.138300
     57 N5          68.9820   -14.6190    42.8670 n          1 KOO      -0.405800
     58 C48         69.0030   -15.3940    41.7470 c          1 KOO       0.589600
     59 O5          69.0470   -14.9960    40.5980 o          1 KOO      -0.540000
     60 C40         68.9560   -16.7940    42.2220 ca         1 KOO      -0.159600
     61 C39         68.9130   -17.9750    41.4990 ca         1 KOO      -0.033000
     62 C38         68.8410   -19.1640    42.2140 ca         1 KOO      -0.126000
     63 C37         68.8060   -19.1610    43.6050 ca         1 KOO      -0.066000
     64 C43         69.0970   -13.1920    42.8360 c6         1 KOO       0.038700
     65 C47         70.4270   -12.6750    43.3730 c6         1 KOO      -0.088400
     66 C46         70.4570   -11.1580    43.3080 c6         1 KOO      -0.165400
     67 C45         69.2650   -10.5090    43.9530 c          1 KOO       0.575000
     68 O3          69.2650    -9.3810    44.3870 o          1 KOO      -0.501000
     69 N6          68.1150   -11.2730    44.0140 ns         1 KOO      -0.483500
     70 C44         67.9140   -12.5500    43.5440 c          1 KOO       0.560000
     71 O4          66.8470   -13.1010    43.6740 o          1 KOO      -0.499000
     72 H1          60.9350    -5.5760    59.8920 ha         1 KOO       0.120000
     73 H2          65.0830   -11.4730    60.5150 hc         1 KOO       0.039144
     74 H3          66.2910   -10.1970    60.3830 hc         1 KOO       0.039144
     75 H4          64.5820    -9.8360    60.1290 hc         1 KOO       0.039144
     76 H5          63.8920   -12.3120    58.5330 hc         1 KOO       0.039144
     77 H6          63.4100   -10.7300    57.9520 hc         1 KOO       0.039144
     78 H7          64.3050   -11.8170    56.8920 hc         1 KOO       0.039144
     79 H8          68.6740   -10.5300    57.3770 h1         1 KOO       0.056700
     80 H9          69.0670    -9.0350    56.5340 h1         1 KOO       0.056700
     81 H10         69.5950   -11.8960    55.6640 hc         1 KOO       0.052200
     82 H11         70.6720   -10.5070    55.5470 hc         1 KOO       0.052200
     83 H12         69.3020   -11.3140    53.3380 hc         1 KOO       0.050200
     84 H13         69.4530    -9.5980    53.6660 hc         1 KOO       0.050200
     85 H14         67.1380    -9.5940    53.7000 h1         1 KOO       0.091700
     86 H15         64.3220    -9.9950    52.8060 ha         1 KOO       0.133500
     87 H16         64.0440    -8.2120    51.1310 ha         1 KOO       0.130000
     88 H17         62.9620    -7.2270    59.1140 ha         1 KOO       0.180000
     89 H18         63.3660    -1.9840    57.4530 ha         1 KOO       0.099000
     90 H19         61.2650    -1.4920    58.6290 ha         1 KOO       0.180000
     91 H22         64.1840    -8.7600    58.1240 hn         1 KOO       0.330500
     92 H23         67.0040    -9.4010    58.1680 h1         1 KOO       0.068700
     93 H24         66.2540   -12.9150    58.9120 hc         1 KOO       0.039144
     94 H25         66.7930   -12.3290    57.3470 hc         1 KOO       0.039144
     95 H26         67.5350   -11.7140    58.8320 hc         1 KOO       0.039144
     96 H27         67.8430   -11.3530    50.8010 ha         1 KOO       0.133500
     97 H28         67.5860    -9.5660    49.1210 ha         1 KOO       0.130000
     98 H29         64.9180    -4.7220    47.3680 h4         1 KOO       0.161000
     99 H30         66.2300    -6.6040    46.0480 h4         1 KOO       0.037100
    100 H31         64.6400   -12.8580    51.9030 h1         1 KOO       0.078200
    101 H32         65.1360   -13.5330    53.4420 h1         1 KOO       0.078200
    102 H33         67.2410   -14.3530    52.4890 hc         1 KOO       0.064700
    103 H34         66.8910   -13.6130    50.9400 hc         1 KOO       0.064700
    104 H35         64.6060   -17.4310    50.4760 h1         1 KOO       0.042367
    105 H36         65.7320   -17.6200    49.1360 h1         1 KOO       0.042367
    106 H37         66.1300   -18.2930    50.7210 h1         1 KOO       0.042367
    107 H38         68.2040   -16.9890    50.7980 h1         1 KOO       0.045700
    108 H39         68.1570   -15.2510    50.6820 h1         1 KOO       0.045700
    109 H40         68.6150   -15.3770    48.4670 hc         1 KOO       0.058700
    110 H41         67.0950   -16.1720    48.1930 hc         1 KOO       0.058700
    111 H42         68.3520   -18.3860    48.8950 hc         1 KOO       0.060700
    112 H43         69.8130   -17.4500    48.7090 hc         1 KOO       0.060700
    113 H44         69.8700   -15.1950    44.7000 h1         1 KOO       0.074700
    114 H45         68.1070   -15.1490    44.7210 h1         1 KOO       0.074700
    115 H46         68.9320   -17.9720    40.4160 ha         1 KOO       0.135000
    116 H47         68.8060   -20.1080    41.6880 ha         1 KOO       0.120000
    117 H48         68.7370   -20.0990    44.1410 ha         1 KOO       0.123000
    118 H49         69.0130   -12.8890    41.7840 h1         1 KOO       0.107700
    119 H50         70.5870   -13.0130    44.3980 hc         1 KOO       0.061700
    120 H51         71.2340   -13.0840    42.7670 hc         1 KOO       0.061700
    121 H52         71.3530   -10.7600    43.7850 hc         1 KOO       0.081700
    122 H53         70.4850   -10.8250    42.2650 hc         1 KOO       0.081700
    123 H54         67.3140   -10.8330    44.4530 hn         1 KOO       0.339500
    124 C10         65.3620   -10.5780    59.9560 c3         1 KOO      -0.089433
    125 C11         64.2140   -11.4680    57.9200 c3         1 KOO      -0.089433
    126 O8          65.2190    -9.9100    55.4920 o          1 KOO      -0.616100
@<TRIPOS>BOND
     1     1     2 ar  
     2     1    21 ar  
     3     1    22 1   
     4     2     3 ar  
     5     2    72 1   
     6     3     4 ar  
     7     3    18 1   
     8     4    19 1   
     9     4    20 ar  
    10     5     6 1   
    11     5    18 2   
    12     5    19 1   
    13     6    17 2   
    14     6    29 1   
    15     7    30 1   
    16     7    33 1   
    17     7   126 2   
    18     8     9 1   
    19     8    33 1   
    20     8    79 1   
    21     8    80 1   
    22     9    10 1   
    23     9    81 1   
    24     9    82 1   
    25    10    11 1   
    26    10    83 1   
    27    10    84 1   
    28    11    12 1   
    29    11    33 1   
    30    11    85 1   
    31    12    34 2   
    32    12    35 1   
    33    13    14 ar  
    34    13    35 1   
    35    13    36 ar  
    36    14    15 ar  
    37    14    86 1   
    38    15    16 ar  
    39    15    87 1   
    40    16    37 ar  
    41    16    38 1   
    42    18    88 1   
    43    20    21 ar  
    44    20    89 1   
    45    21    90 1   
    46    22    23 1   
    47    22    24 1   
    48    22    28 1   
    49    24    25 1   
    50    24    26 1   
    51    24    27 1   
    52    29    30 1   
    53    29    91 1   
    54    30    31 1   
    55    30    92 1   
    56    31    32 1   
    57    31   124 1   
    58    31   125 1   
    59    32    93 1   
    60    32    94 1   
    61    32    95 1   
    62    35    43 1   
    63    36    37 ar  
    64    36    96 1   
    65    37    97 1   
    66    38    39 1   
    67    38    42 2   
    68    39    40 1   
    69    40    41 2   
    70    40    98 1   
    71    41    42 1   
    72    41    99 1   
    73    43    44 1   
    74    43   100 1   
    75    43   101 1   
    76    44    45 1   
    77    44   102 1   
    78    44   103 1   
    79    45    46 2   
    80    45    47 1   
    81    47    48 1   
    82    47    49 1   
    83    48   104 1   
    84    48   105 1   
    85    48   106 1   
    86    49    50 1   
    87    49   107 1   
    88    49   108 1   
    89    50    51 1   
    90    50   109 1   
    91    50   110 1   
    92    51    52 1   
    93    51   111 1   
    94    51   112 1   
    95    52    53 3   
    96    53    54 1   
    97    54    55 ar  
    98    54    63 ar  
    99    55    56 1   
   100    55    60 ar  
   101    56    57 1   
   102    56   113 1   
   103    56   114 1   
   104    57    58 1   
   105    57    64 1   
   106    58    59 2   
   107    58    60 1   
   108    60    61 ar  
   109    61    62 ar  
   110    61   115 1   
   111    62    63 ar  
   112    62   116 1   
   113    63   117 1   
   114    64    65 1   
   115    64    70 1   
   116    64   118 1   
   117    65    66 1   
   118    65   119 1   
   119    65   120 1   
   120    66    67 1   
   121    66   121 1   
   122    66   122 1   
   123    67    68 2   
   124    67    69 1   
   125    69    70 1   
   126    69   123 1   
   127    70    71 2   
   128    73   124 1   
   129    74   124 1   
   130    75   124 1   
   131    76   125 1   
   132    77   125 1   
   133    78   125 1   
@<TRIPOS>SUBSTRUCTURE
     1 KOO         1 TEMP              0 ****  ****    0 ROOT
