@<TRIPOS>MOLECULE
KOO
  126   133     1     0     0
SMALL
No Charge or Current Charge


@<TRIPOS>ATOM
      1 C1          63.3110    -2.8230    58.1220 ca         1 KOO      -0.044300
      2 C2          63.5190    -4.1590    57.7010 ca         1 KOO      -0.064000
      3 C3          64.8320    -4.6160    57.5090 ca         1 KOO      -0.114800
      4 C4          65.9210    -3.8000    57.7250 ca         1 KOO      -0.153000
      5 C5          66.6220    -6.0930    56.9740 cc         1 KOO      -0.193600
      6 C6          67.3380    -7.3210    56.5510 c          1 KOO       0.649300
      7 C12         66.0980   -10.1320    54.5420 c          1 KOO       0.606100
      8 C13         68.1040   -11.0440    53.2540 c5         1 KOO       0.114000
      9 C14         68.1310   -12.1930    52.2190 c5         1 KOO      -0.095400
     10 C15         66.9070   -11.8380    51.3430 c5         1 KOO      -0.079400
     11 C16         65.8210   -11.4720    52.4100 c5         1 KOO       0.037700
     12 C17         64.9470   -12.7260    52.7930 c          1 KOO       0.609100
     13 C18         63.7730   -12.5290    50.5480 ca         1 KOO      -0.046000
     14 C19         63.1590   -11.2770    50.7430 ca         1 KOO      -0.110500
     15 C20         62.8230   -10.4590    49.6520 ca         1 KOO      -0.078500
     16 C21         63.1200   -10.8620    48.3320 ca         1 KOO      -0.131500
     17 O9          68.5560    -7.4010    56.4760 o          1 KOO      -0.638100
     18 C49         65.2470    -5.9300    57.0800 cd         1 KOO      -0.095200
     19 S           67.4910    -4.5940    57.4180 ss         1 KOO       0.042400
     20 C50         65.7470    -2.4760    58.1500 ca         1 KOO      -0.135000
     21 C51         64.4370    -1.9910    58.3490 ca         1 KOO      -0.020000
     22 C           61.8950    -2.2680    58.3360 c3         1 KOO      -0.044700
     23 F1          60.9690    -3.0000    57.6610 f          1 KOO      -0.158500
     24 P           61.3920    -2.2130    60.1650 p5         1 KOO       1.260500
     25 O2          62.3270    -1.3210    60.9170 o          1 KOO      -0.896833
     26 O1          61.4430    -3.5890    60.7460 o          1 KOO      -0.896833
     27 O           60.0000    -1.6790    60.2910 o          1 KOO      -0.896833
     28 F           61.7980    -1.0110    57.8280 f          1 KOO      -0.158500
     29 N           66.5160    -8.3800    56.2340 ns         1 KOO      -0.490900
     30 C7          66.9680    -9.7180    55.7810 c3         1 KOO       0.061700
     31 C8          66.9510   -10.7710    56.9610 c3         1 KOO      -0.046000
     32 C9          67.5580   -12.1300    56.5180 c3         1 KOO      -0.089433
     33 N1          66.6540   -10.9510    53.5340 n          1 KOO      -0.392800
     34 O7          64.9330   -13.2670    53.8960 o          1 KOO      -0.604100
     35 N2          64.2750   -13.2860    51.6700 n          1 KOO      -0.245400
     36 C26         64.1170   -12.9090    49.2370 ca         1 KOO      -0.110500
     37 C25         63.7860   -12.0930    48.1420 ca         1 KOO      -0.078500
     38 C22         62.8390    -9.9800    47.1880 cc         1 KOO       0.477900
     39 S1          61.6860    -8.6690    47.2870 ss         1 KOO       0.022600
     40 C24         62.0620    -8.2960    45.6310 cc         1 KOO      -0.282000
     41 C23         63.0060    -9.1560    45.1250 cd         1 KOO       0.272900
     42 N3          63.4540   -10.1190    46.0170 nd         1 KOO      -0.652000
     43 C27         63.9220   -14.7230    51.7260 c3         1 KOO       0.118000
     44 C28         65.1260   -15.6330    51.4010 c3         1 KOO      -0.179400
     45 C29         64.7970   -17.1280    51.2640 c          1 KOO       0.609100
     46 O6          63.6350   -17.5150    51.2780 o          1 KOO      -0.594100
     47 N4          65.8540   -18.0360    51.0130 n          1 KOO      -0.411800
     48 C30         65.5350   -19.4380    50.6540 c3         1 KOO       0.075300
     49 C31         67.2360   -17.7840    51.4950 c3         1 KOO       0.103000
     50 C32         68.1490   -17.0540    50.4850 c3         1 KOO      -0.093400
     51 C33         68.2650   -17.7480    49.1080 c3         1 KOO       0.003700
     52 C34         69.1370   -16.9990    48.1970 c1         1 KOO      -0.100100
     53 C35         69.8560   -16.3300    47.4830 cg         1 KOO      -0.139000
     54 C36         70.7020   -15.5120    46.6630 ca         1 KOO       0.049000
     55 C41         70.4200   -14.1460    46.4770 ca         1 KOO      -0.061300
     56 C42         69.2510   -13.3420    47.0420 c5         1 KOO       0.138300
     57 N5          69.5730   -11.9950    46.4700 n          1 KOO      -0.405800
     58 C48         70.7400   -11.9830    45.6930 c          1 KOO       0.589600
     59 O5          71.2250   -11.0150    45.1240 o          1 KOO      -0.540000
     60 C40         71.2600   -13.3610    45.7040 ca         1 KOO      -0.159600
     61 C39         72.4030   -13.8770    45.0770 ca         1 KOO      -0.033000
     62 C38         72.6920   -15.2450    45.2520 ca         1 KOO      -0.126000
     63 C37         71.8470   -16.0570    46.0430 ca         1 KOO      -0.066000
     64 C43         68.7410   -10.7890    46.7360 c6         1 KOO       0.038700
     65 C47         68.9240   -10.2790    48.1880 c6         1 KOO      -0.088400
     66 C46         68.0040    -9.0690    48.4830 c6         1 KOO      -0.165400
     67 C45         66.5540    -9.2630    48.0240 c          1 KOO       0.575000
     68 O3          65.6260    -8.6870    48.5610 o          1 KOO      -0.501000
     69 N6          66.3410   -10.1530    47.0120 ns         1 KOO      -0.483500
     70 C44         67.2470   -10.9060    46.3180 c          1 KOO       0.560000
     71 O4          66.8800   -11.5970    45.3810 o          1 KOO      -0.499000
     72 H1          62.6810    -4.8290    57.5260 ha         1 KOO       0.120000
     73 H2          67.8580   -11.0080    58.9520 hc         1 KOO       0.039144
     74 H3          68.8180   -10.0130    57.8430 hc         1 KOO       0.039144
     75 H4          67.3560    -9.3510    58.6040 hc         1 KOO       0.039144
     76 H5          65.4920   -11.7170    58.3070 hc         1 KOO       0.039144
     77 H6          65.0210   -10.0920    57.7860 hc         1 KOO       0.039144
     78 H7          64.8780   -11.4650    56.6680 hc         1 KOO       0.039144
     79 H8          68.7060   -11.2870    54.1360 h1         1 KOO       0.056700
     80 H9          68.4770   -10.1040    52.8260 h1         1 KOO       0.056700
     81 H10         68.0080   -13.1690    52.7030 hc         1 KOO       0.052200
     82 H11         69.0670   -12.2210    51.6490 hc         1 KOO       0.052200
     83 H12         66.6270   -12.6540    50.6690 hc         1 KOO       0.050200
     84 H13         67.1210   -10.9680    50.7120 hc         1 KOO       0.050200
     85 H14         65.1650   -10.6830    52.0310 h1         1 KOO       0.091700
     86 H15         62.9230   -10.9350    51.7490 ha         1 KOO       0.133500
     87 H16         62.3500    -9.5000    49.8500 ha         1 KOO       0.130000
     88 H17         64.5250    -6.7120    56.8610 ha         1 KOO       0.180000
     89 H18         66.6060    -1.8330    58.3250 ha         1 KOO       0.099000
     90 H19         64.2950    -0.9640    58.6820 ha         1 KOO       0.180000
     91 H22         65.5210    -8.2120    56.2800 hn         1 KOO       0.330500
     92 H23         68.0020    -9.6170    55.4300 h1         1 KOO       0.068700
     93 H24         67.5340   -12.8540    57.3420 hc         1 KOO       0.039144
     94 H25         67.0020   -12.5700    55.6840 hc         1 KOO       0.039144
     95 H26         68.6060   -12.0140    56.2180 hc         1 KOO       0.039144
     96 H27         64.6550   -13.8340    49.0540 ha         1 KOO       0.133500
     97 H28         64.0610   -12.4230    47.1420 ha         1 KOO       0.130000
     98 H29         61.5670    -7.4710    45.1350 h4         1 KOO       0.161000
     99 H30         63.4060    -9.1320    44.1190 h4         1 KOO       0.037100
    100 H31         63.1200   -14.9140    51.0010 h1         1 KOO       0.078200
    101 H32         63.5220   -14.9740    52.7180 h1         1 KOO       0.078200
    102 H33         65.9300   -15.4960    52.1300 hc         1 KOO       0.064700
    103 H34         65.6190   -15.3310    50.4730 hc         1 KOO       0.064700
    104 H35         65.1630   -19.9710    51.5380 h1         1 KOO       0.042367
    105 H36         64.7670   -19.4580    49.8700 h1         1 KOO       0.042367
    106 H37         66.4300   -19.9480    50.2750 h1         1 KOO       0.042367
    107 H38         67.7030   -18.7470    51.7400 h1         1 KOO       0.045700
    108 H39         67.2030   -17.2190    52.4350 h1         1 KOO       0.045700
    109 H40         69.1490   -16.9690    50.9280 hc         1 KOO       0.058700
    110 H41         67.7910   -16.0280    50.3420 hc         1 KOO       0.058700
    111 H42         67.2740   -17.8390    48.6480 hc         1 KOO       0.060700
    112 H43         68.6610   -18.7640    49.2340 hc         1 KOO       0.060700
    113 H44         69.2580   -13.3390    48.1400 h1         1 KOO       0.074700
    114 H45         68.2860   -13.7250    46.6840 h1         1 KOO       0.074700
    115 H46         73.0490   -13.2400    44.4740 ha         1 KOO       0.135000
    116 H47         73.5720   -15.6770    44.7800 ha         1 KOO       0.120000
    117 H48         72.0850   -17.1100    46.1760 ha         1 KOO       0.123000
    118 H49         69.1040    -9.9830    46.0830 h1         1 KOO       0.107700
    119 H50         68.6880   -11.0900    48.8900 hc         1 KOO       0.061700
    120 H51         69.9750   -10.0110    48.3660 hc         1 KOO       0.061700
    121 H52         68.0260    -8.7520    49.5340 hc         1 KOO       0.081700
    122 H53         68.3850    -8.2230    47.8950 hc         1 KOO       0.081700
    123 H54         65.3790   -10.2440    46.7070 hn         1 KOO       0.339500
    124 C10         67.7960   -10.2520    58.1600 c3         1 KOO      -0.089433
    125 C11         65.4990   -11.0230    57.4570 c3         1 KOO      -0.089433
    126 O8          64.9260    -9.7750    54.4500 o          1 KOO      -0.616100
@<TRIPOS>BOND
     1     1     2 ar  
     2     1    21 ar  
     3     1    22 1   
     4     2     3 ar  
     5     2    72 1   
     6     3     4 ar  
     7     3    18 1   
     8     4    19 1   
     9     4    20 ar  
    10     5     6 1   
    11     5    18 2   
    12     5    19 1   
    13     6    17 2   
    14     6    29 1   
    15     7    30 1   
    16     7    33 1   
    17     7   126 2   
    18     8     9 1   
    19     8    33 1   
    20     8    79 1   
    21     8    80 1   
    22     9    10 1   
    23     9    81 1   
    24     9    82 1   
    25    10    11 1   
    26    10    83 1   
    27    10    84 1   
    28    11    12 1   
    29    11    33 1   
    30    11    85 1   
    31    12    34 2   
    32    12    35 1   
    33    13    14 ar  
    34    13    35 1   
    35    13    36 ar  
    36    14    15 ar  
    37    14    86 1   
    38    15    16 ar  
    39    15    87 1   
    40    16    37 ar  
    41    16    38 1   
    42    18    88 1   
    43    20    21 ar  
    44    20    89 1   
    45    21    90 1   
    46    22    23 1   
    47    22    24 1   
    48    22    28 1   
    49    24    25 1   
    50    24    26 1   
    51    24    27 1   
    52    29    30 1   
    53    29    91 1   
    54    30    31 1   
    55    30    92 1   
    56    31    32 1   
    57    31   124 1   
    58    31   125 1   
    59    32    93 1   
    60    32    94 1   
    61    32    95 1   
    62    35    43 1   
    63    36    37 ar  
    64    36    96 1   
    65    37    97 1   
    66    38    39 1   
    67    38    42 2   
    68    39    40 1   
    69    40    41 2   
    70    40    98 1   
    71    41    42 1   
    72    41    99 1   
    73    43    44 1   
    74    43   100 1   
    75    43   101 1   
    76    44    45 1   
    77    44   102 1   
    78    44   103 1   
    79    45    46 2   
    80    45    47 1   
    81    47    48 1   
    82    47    49 1   
    83    48   104 1   
    84    48   105 1   
    85    48   106 1   
    86    49    50 1   
    87    49   107 1   
    88    49   108 1   
    89    50    51 1   
    90    50   109 1   
    91    50   110 1   
    92    51    52 1   
    93    51   111 1   
    94    51   112 1   
    95    52    53 3   
    96    53    54 1   
    97    54    55 ar  
    98    54    63 ar  
    99    55    56 1   
   100    55    60 ar  
   101    56    57 1   
   102    56   113 1   
   103    56   114 1   
   104    57    58 1   
   105    57    64 1   
   106    58    59 2   
   107    58    60 1   
   108    60    61 ar  
   109    61    62 ar  
   110    61   115 1   
   111    62    63 ar  
   112    62   116 1   
   113    63   117 1   
   114    64    65 1   
   115    64    70 1   
   116    64   118 1   
   117    65    66 1   
   118    65   119 1   
   119    65   120 1   
   120    66    67 1   
   121    66   121 1   
   122    66   122 1   
   123    67    68 2   
   124    67    69 1   
   125    69    70 1   
   126    69   123 1   
   127    70    71 2   
   128    73   124 1   
   129    74   124 1   
   130    75   124 1   
   131    76   125 1   
   132    77   125 1   
   133    78   125 1   
@<TRIPOS>SUBSTRUCTURE
     1 KOO         1 TEMP              0 ****  ****    0 ROOT
