@<TRIPOS>MOLECULE
KOP
    9     8     1     0     0
SMALL
No Charge or Current Charge


@<TRIPOS>ATOM
      1 P            0.3460     0.0520     0.0030 p5         1 KOP       1.280900
      2 C1          -2.2750     0.0340    -0.0660 c3         1 KOP       0.248900
      3 O4          -1.0570     0.5150    -0.6330 os         1 KOP      -0.593400
      4 O1P          0.4290     0.4900     1.4230 o          1 KOP      -0.934167
      5 O2P          0.4820    -1.4270    -0.0880 o          1 KOP      -0.934167
      6 O3P          1.4460     0.6910    -0.7700 o          1 KOP      -0.934167
      7 H1          -2.3300    -1.0600    -0.1210 h1         1 KOP      -0.043967
      8 H1A         -2.3680     0.3420     0.9840 h1         1 KOP      -0.043967
      9 H1B         -3.1310     0.4450    -0.6160 h1         1 KOP      -0.043967
@<TRIPOS>BOND
     1     1     3 1   
     2     1     4 1   
     3     1     5 1   
     4     1     6 1   
     5     2     3 1   
     6     2     7 1   
     7     2     8 1   
     8     2     9 1   
@<TRIPOS>SUBSTRUCTURE
     1 KOP         1 TEMP              0 ****  ****    0 ROOT
