@<TRIPOS>MOLECULE
KOP
    9     8     1     0     0
SMALL
bcc


@<TRIPOS>ATOM
      1 P            0.4090     0.0310     0.0490 p5         1 KOP       1.280900
      2 C1          -2.2360     0.0320    -0.0790 c3         1 KOP       0.225700
      3 O4          -1.0620     0.5260    -0.6550 os         1 KOP      -0.570200
      4 O1P          0.3630     0.5640     1.4780 o          1 KOP      -0.934167
      5 O2P          0.4000    -1.4920    -0.0470 o          1 KOP      -0.934167
      6 O3P          1.4090     0.7280    -0.8650 o          1 KOP      -0.934167
      7 H1          -2.3280    -1.0570    -0.1740 h1         1 KOP      -0.043967
      8 H1A         -2.3140     0.2690     0.9890 h1         1 KOP      -0.043967
      9 H1B         -3.0990     0.4810    -0.5790 h1         1 KOP      -0.043967
@<TRIPOS>BOND
     1     1     3 1   
     2     1     4 1   
     3     1     5 1   
     4     1     6 1   
     5     2     3 1   
     6     2     7 1   
     7     2     8 1   
     8     2     9 1   
@<TRIPOS>SUBSTRUCTURE
     1 KOP         1 TEMP              0 ****  ****    0 ROOT
