@<TRIPOS>MOLECULE
KOQ
   60    63     1     0     0
SMALL
abcg2


@<TRIPOS>ATOM
      1 C10        -20.4270     4.9130    -0.2440 c3         1 KOQ       0.172600
      2 C14        -18.2050     7.8600    -1.3040 c6         1 KOQ       0.082300
      3 C12        -18.5030     6.4650    -0.7520 c6         1 KOQ       0.132300
      4 C23        -12.3220     9.1300    -1.0900 ca         1 KOQ      -0.069500
      5 C18        -13.4370     8.9060    -0.2810 ca         1 KOQ      -0.116500
      6 C17        -14.7320     8.5910    -0.8780 cc         1 KOQ       0.247500
      7 C16        -15.9600     8.4080    -0.2850 cd         1 KOQ      -0.175000
      8 C22        -11.0860     9.4290    -0.5400 ca         1 KOQ      -0.155000
      9 C21        -10.9710     9.5030     0.8350 ca         1 KOQ       0.171000
     10 C20        -12.0510     9.2870     1.6690 ca         1 KOQ      -0.155000
     11 C19        -13.2810     8.9890     1.1030 ca         1 KOQ      -0.069500
     12 C02        -23.2390    11.0720    -4.1040 c3         1 KOQ       0.176600
     13 C03        -23.7340    10.4640    -2.8100 c6         1 KOQ       0.166300
     14 C05        -22.9500     9.7740    -0.7050 c6         1 KOQ       0.293300
     15 C07        -20.4750     8.5430    -0.6260 c6         1 KOQ       0.247300
     16 C09        -20.0160     6.2550    -0.8070 c6         1 KOQ       0.136300
     17 C26        -18.9930     8.9450    -0.5750 c6         1 KOQ       0.151300
     18 C28        -24.0950    10.4410     0.0510 c6         1 KOQ       0.131300
     19 C30        -25.3050    10.4900    -0.8850 c6         1 KOQ       0.093300
     20 C32        -24.9420    11.1730    -2.2000 c6         1 KOQ       0.149300
     21 F34         -9.7760     9.7920     1.3730 f          1 KOQ      -0.180000
     22 N15        -16.7850     8.1460    -1.3110 na         1 KOQ       0.137800
     23 N24        -14.8980     8.4250    -2.2110 nc         1 KOQ      -0.355000
     24 N25        -16.1290     8.1620    -2.4610 nd         1 KOQ      -0.200800
     25 O01        -22.9490    12.4340    -3.9120 oh         1 KOQ      -0.710000
     26 O04        -22.6670    10.4850    -1.8760 os         1 KOQ      -0.433000
     27 O08        -20.6780     7.2730    -0.0770 os         1 KOQ      -0.403000
     28 O11        -21.7970     4.7200    -0.4980 oh         1 KOQ      -0.708000
     29 O13        -18.0110     6.3700     0.5610 oh         1 KOQ      -0.708000
     30 O27        -18.7550    10.1460    -1.2470 oh         1 KOQ      -0.705000
     31 O29        -24.3540     9.6920     1.2090 oh         1 KOQ      -0.702000
     32 O31        -26.3750    11.2010    -0.3020 oh         1 KOQ      -0.666000
     33 O33        -25.9970    11.1070    -3.1250 oh         1 KOQ      -0.718000
     34 S06        -21.4550     9.7390     0.3140 ss         1 KOQ      -0.313000
     35 H101       -19.8100     4.1450    -0.7290 h1         1 KOQ       0.031200
     36 H102       -20.2010     4.8800     0.8280 h1         1 KOQ       0.031200
     37 H141       -18.5050     7.8750    -2.3560 h1         1 KOQ       0.105700
     38 H121       -18.0280     5.7330    -1.4150 h1         1 KOQ       0.058700
     39 H161       -16.2870     8.4550     0.7390 h4         1 KOQ       0.176000
     40 H221       -10.2260     9.6040    -1.1730 ha         1 KOQ       0.131000
     41 H201       -11.9380     9.3490     2.7440 ha         1 KOQ       0.131000
     42 H191       -14.1230     8.8170     1.7610 ha         1 KOQ       0.125000
     43 H022       -24.0100    10.9160    -4.8670 h1         1 KOQ       0.035200
     44 H021       -22.3560    10.5070    -4.4290 h1         1 KOQ       0.035200
     45 H031       -24.0170     9.4230    -3.0330 h1         1 KOQ       0.047700
     46 H051       -23.2230     8.7320    -0.9340 h2         1 KOQ       0.075700
     47 H071       -20.8060     8.5830    -1.6750 h2         1 KOQ       0.071700
     48 H091       -20.3190     6.2980    -1.8670 h1         1 KOQ       0.055700
     49 H261       -18.6800     8.9940     0.4780 h1         1 KOQ       0.070700
     50 H281       -23.7950    11.4720     0.2960 h1         1 KOQ       0.068700
     51 H301       -25.6020     9.4550    -1.1100 h1         1 KOQ       0.052700
     52 H321       -24.6680    12.2160    -1.9850 h1         1 KOQ       0.076700
     53 H011       -22.6930    12.8090    -4.7590 ho         1 KOQ       0.506000
     54 H111       -22.0560     3.8760    -0.1170 ho         1 KOQ       0.509000
     55 H131       -17.5610     5.5280     0.6710 ho         1 KOQ       0.514000
     56 H271       -19.2340    10.8510    -0.7960 ho         1 KOQ       0.532000
     57 H291       -24.9400    10.2000     1.7790 ho         1 KOQ       0.512000
     58 H311       -26.9460    10.5860     0.1670 ho         1 KOQ       0.453000
     59 H331       -26.7710    11.5110    -2.7210 ho         1 KOQ       0.522000
     60 H231       -12.4170     9.0740    -2.1660 ha         1 KOQ       0.125000
@<TRIPOS>BOND
     1     1    16 1   
     2     1    28 1   
     3     1    35 1   
     4     1    36 1   
     5     2     3 1   
     6     2    17 1   
     7     2    22 1   
     8     2    37 1   
     9     3    16 1   
    10     3    29 1   
    11     3    38 1   
    12     4     5 ar  
    13     4     8 ar  
    14     4    60 1   
    15     5     6 1   
    16     5    11 ar  
    17     6     7 2   
    18     6    23 1   
    19     7    22 1   
    20     7    39 1   
    21     8     9 ar  
    22     8    40 1   
    23     9    10 ar  
    24     9    21 1   
    25    10    11 ar  
    26    10    41 1   
    27    11    42 1   
    28    12    13 1   
    29    12    25 1   
    30    12    43 1   
    31    12    44 1   
    32    13    20 1   
    33    13    26 1   
    34    13    45 1   
    35    14    18 1   
    36    14    26 1   
    37    14    34 1   
    38    14    46 1   
    39    15    17 1   
    40    15    27 1   
    41    15    34 1   
    42    15    47 1   
    43    16    27 1   
    44    16    48 1   
    45    17    30 1   
    46    17    49 1   
    47    18    19 1   
    48    18    31 1   
    49    18    50 1   
    50    19    20 1   
    51    19    32 1   
    52    19    51 1   
    53    20    33 1   
    54    20    52 1   
    55    22    24 1   
    56    23    24 2   
    57    25    53 1   
    58    28    54 1   
    59    29    55 1   
    60    30    56 1   
    61    31    57 1   
    62    32    58 1   
    63    33    59 1   
@<TRIPOS>SUBSTRUCTURE
     1 KOQ         1 TEMP              0 ****  ****    0 ROOT
