@<TRIPOS>MOLECULE
KOQ
   60    63     1     0     0
SMALL
No Charge or Current Charge


@<TRIPOS>ATOM
      1 C10        -20.6840     5.5380    -1.0300 c3         1 KOQ       0.172600
      2 C14        -17.9040     8.2800    -1.6600 c6         1 KOQ       0.082300
      3 C12        -18.4460     6.8850    -1.2120 c6         1 KOQ       0.132300
      4 C23        -11.9680     8.8850    -0.5100 ca         1 KOQ      -0.069500
      5 C18        -13.2550     8.7110     0.0490 ca         1 KOQ      -0.116500
      6 C17        -14.4200     8.5290    -0.8340 cc         1 KOQ       0.247500
      7 C16        -15.7020     8.5550    -0.3810 cd         1 KOQ      -0.175000
      8 C22        -10.8410     9.0420     0.3170 ca         1 KOQ      -0.155000
      9 C21        -10.9890     9.0190     1.7110 ca         1 KOQ       0.171000
     10 C20        -12.2550     8.8350     2.2820 ca         1 KOQ      -0.155000
     11 C19        -13.3830     8.6780     1.4580 ca         1 KOQ      -0.069500
     12 C02        -24.0900     9.9590    -4.1960 c3         1 KOQ       0.176600
     13 C03        -24.1820     9.7650    -2.6450 c6         1 KOQ       0.166300
     14 C05        -22.8390    10.0150    -0.6330 c6         1 KOQ       0.293300
     15 C07        -20.1820     9.2720    -1.0740 c6         1 KOQ       0.247300
     16 C09        -19.9970     6.8850    -1.4260 c6         1 KOQ       0.136300
     17 C26        -18.6350     9.4340    -0.9020 c6         1 KOQ       0.151300
     18 C28        -23.9610    10.8250     0.0950 c6         1 KOQ       0.131300
     19 C30        -25.3420    10.3750    -0.4610 c6         1 KOQ       0.093300
     20 C32        -25.3850    10.5330    -2.0080 c6         1 KOQ       0.149300
     21 F34         -9.9060     9.1680     2.5050 f          1 KOQ      -0.180000
     22 N15        -16.4270     8.3560    -1.5380 na         1 KOQ       0.137800
     23 N24        -14.3630     8.3320    -2.1840 nc         1 KOQ      -0.355000
     24 N25        -15.5920     8.2190    -2.6230 nd         1 KOQ      -0.200800
     25 O01        -23.7940    11.3140    -4.6000 oh         1 KOQ      -0.710000
     26 O04        -22.9360    10.2240    -2.0580 os         1 KOQ      -0.433000
     27 O08        -20.6000     7.9560    -0.6590 os         1 KOQ      -0.403000
     28 O11        -22.1050     5.5410    -1.2710 oh         1 KOQ      -0.708000
     29 O13        -18.0980     6.6270     0.1690 oh         1 KOQ      -0.708000
     30 O27        -18.1910    10.7250    -1.3810 oh         1 KOQ      -0.705000
     31 O29        -23.9320    10.6450     1.5300 oh         1 KOQ      -0.702000
     32 O31        -26.4050    11.1220     0.1570 oh         1 KOQ      -0.666000
     33 O33        -26.6570    10.0590    -2.4900 oh         1 KOQ      -0.718000
     34 S06        -21.1430    10.5090    -0.0970 ss         1 KOQ      -0.313000
     35 H101       -20.2090     4.7300    -1.6030 h1         1 KOQ       0.031200
     36 H102       -20.4870     5.3450     0.0330 h1         1 KOQ       0.031200
     37 H141       -18.1390     8.3950    -2.7280 h1         1 KOQ       0.105700
     38 H121       -18.0010     6.1180    -1.8650 h1         1 KOQ       0.058700
     39 H161       -16.1380     8.6870     0.5980 h4         1 KOQ       0.176000
     40 H221        -9.8560     9.1800    -0.1210 ha         1 KOQ       0.131000
     41 H201       -12.3610     8.8110     3.3640 ha         1 KOQ       0.131000
     42 H191       -14.3510     8.5260     1.9280 ha         1 KOQ       0.125000
     43 H022       -25.0360     9.6270    -4.6440 h1         1 KOQ       0.035200
     44 H021       -23.3080     9.2820    -4.5680 h1         1 KOQ       0.035200
     45 H031       -24.2890     8.6890    -2.4430 h1         1 KOQ       0.047700
     46 H051       -22.9510     8.9440    -0.4040 h2         1 KOQ       0.075700
     47 H071       -20.4500     9.4270    -2.1300 h2         1 KOQ       0.071700
     48 H091       -20.2090     7.0570    -2.4920 h1         1 KOQ       0.055700
     49 H261       -18.4110     9.3380     0.1710 h1         1 KOQ       0.070700
     50 H281       -23.8170    11.8880    -0.1520 h1         1 KOQ       0.068700
     51 H301       -25.4620     9.3060    -0.2250 h1         1 KOQ       0.052700
     52 H321       -25.2680    11.6010    -2.2470 h1         1 KOQ       0.076700
     53 H011       -23.7020    11.3070    -5.5810 ho         1 KOQ       0.506000
     54 H111       -22.4550     4.6830    -0.9360 ho         1 KOQ       0.509000
     55 H131       -18.0710     5.6500     0.2950 ho         1 KOQ       0.514000
     56 H271       -18.6650    11.4100    -0.8530 ho         1 KOQ       0.532000
     57 H291       -23.0380    10.9260     1.8390 ho         1 KOQ       0.512000
     58 H311       -26.1400    11.2060     1.1030 ho         1 KOQ       0.453000
     59 H331       -27.3060    10.3620    -1.8090 ho         1 KOQ       0.522000
     60 H231       -11.8340     8.9040    -1.5900 ha         1 KOQ       0.125000
@<TRIPOS>BOND
     1     1    16 1   
     2     1    28 1   
     3     1    35 1   
     4     1    36 1   
     5     2     3 1   
     6     2    17 1   
     7     2    22 1   
     8     2    37 1   
     9     3    16 1   
    10     3    29 1   
    11     3    38 1   
    12     4     5 ar  
    13     4     8 ar  
    14     4    60 1   
    15     5     6 1   
    16     5    11 ar  
    17     6     7 2   
    18     6    23 1   
    19     7    22 1   
    20     7    39 1   
    21     8     9 ar  
    22     8    40 1   
    23     9    10 ar  
    24     9    21 1   
    25    10    11 ar  
    26    10    41 1   
    27    11    42 1   
    28    12    13 1   
    29    12    25 1   
    30    12    43 1   
    31    12    44 1   
    32    13    20 1   
    33    13    26 1   
    34    13    45 1   
    35    14    18 1   
    36    14    26 1   
    37    14    34 1   
    38    14    46 1   
    39    15    17 1   
    40    15    27 1   
    41    15    34 1   
    42    15    47 1   
    43    16    27 1   
    44    16    48 1   
    45    17    30 1   
    46    17    49 1   
    47    18    19 1   
    48    18    31 1   
    49    18    50 1   
    50    19    20 1   
    51    19    32 1   
    52    19    51 1   
    53    20    33 1   
    54    20    52 1   
    55    22    24 1   
    56    23    24 2   
    57    25    53 1   
    58    28    54 1   
    59    29    55 1   
    60    30    56 1   
    61    31    57 1   
    62    32    58 1   
    63    33    59 1   
@<TRIPOS>SUBSTRUCTURE
     1 KOQ         1 TEMP              0 ****  ****    0 ROOT
