@<TRIPOS>MOLECULE
KOS
   92    93     1     0     0
SMALL
No Charge or Current Charge


@<TRIPOS>ATOM
      1 C27         -1.2230     2.0090     0.9980 c3         1 KOS       0.152900
      2 O6          -1.4280     0.6120     0.7180 os         1 KOS      -0.446000
      3 C12         -2.7760     0.2350     0.3590 c3         1 KOS       0.176300
      4 C13         -2.6620    -0.7320    -0.8570 c3         1 KOS      -0.074400
      5 C14         -1.9710    -0.1470    -2.1310 c3         1 KOS      -0.064700
      6 C28         -2.8820     0.8470    -2.8900 c3         1 KOS      -0.084100
      7 C15         -1.4030    -1.2630    -3.0730 c3         1 KOS      -0.000200
      8 C16          0.0870    -1.0770    -3.3850 cc         1 KOS      -0.319400
      9 C17          0.6520    -0.7830    -4.6240 cd         1 KOS       0.152800
     10 N29         -0.2180    -0.6830    -5.7090 nu         1 KOS      -0.818200
     11 C30          0.0930    -0.2720    -7.0980 c3         1 KOS       0.236800
     12 C31         -1.1950    -0.1380    -7.9610 c3         1 KOS       0.142800
     13 N32         -0.9830     0.1800    -9.4020 n3         1 KOS      -0.710600
     14 C33         -2.2330     0.0700   -10.1880 c3         1 KOS       0.148600
     15 C34         -0.2980     1.4750    -9.6330 c3         1 KOS       0.148600
     16 C18          2.1640    -0.5800    -4.7890 c          1 KOS       0.574500
     17 O8           2.7160    -0.3730    -5.8650 o          1 KOS      -0.509100
     18 C19          2.9750    -0.6060    -3.5660 cc         1 KOS      -0.337200
     19 C20          2.4170    -0.8370    -2.3330 cd         1 KOS       0.049400
     20 N1           3.2070    -0.6580    -1.2030 ns         1 KOS      -0.431100
     21 C1           2.8020     0.0710    -0.1000 c          1 KOS       0.619300
     22 O1           1.8620     0.8490    -0.1930 o          1 KOS      -0.571100
     23 C2           3.5410    -0.1230     1.2050 ce         1 KOS      -0.176400
     24 C22          4.7220    -1.0950     1.2340 c3         1 KOS      -0.052900
     25 C3           3.0550     0.5040     2.3240 cf         1 KOS      -0.110000
     26 C4           3.5400     0.4210     3.7000 cf         1 KOS      -0.190000
     27 C5           2.8210     0.8140     4.7830 c2         1 KOS      -0.209200
     28 C6           1.4010     1.3770     4.7940 c3         1 KOS       0.196500
     29 O2           1.2460     2.1920     5.9800 os         1 KOS      -0.435000
     30 C23          1.9720     3.4340     5.9750 c3         1 KOS       0.139900
     31 C7           0.3230     0.2360     4.7620 c3         1 KOS       0.244500
     32 O3           0.2980    -0.4270     6.0470 os         1 KOS      -0.450100
     33 C24         -0.1370    -1.7120     6.1100 c          1 KOS       0.642100
     34 N2          -0.1600    -2.1190     7.3860 nt         1 KOS      -0.604000
     35 O4          -0.4520    -2.4250     5.1750 o          1 KOS      -0.547000
     36 C8          -1.1120     0.6510     4.3800 c2         1 KOS      -0.163400
     37 C25         -1.6410     1.8760     5.1190 c3         1 KOS      -0.040900
     38 C9          -1.8280    -0.0650     3.4850 c2         1 KOS      -0.156200
     39 C10         -3.2640     0.1660     3.0080 c3         1 KOS      -0.054500
     40 C26         -4.2200    -0.4170     4.0830 c3         1 KOS      -0.092100
     41 C11         -3.5140    -0.4440     1.5780 c3         1 KOS       0.155300
     42 O5          -4.9280    -0.4510     1.2970 oh         1 KOS      -0.726000
     43 C21          0.9670    -1.2100    -2.1860 c          1 KOS       0.585500
     44 O9           0.5340    -1.6210    -1.1140 o          1 KOS      -0.509100
     45 H271        -0.1850     2.1870     1.3050 h1         1 KOS       0.026367
     46 H272        -1.4250     2.6160     0.1060 h1         1 KOS       0.026367
     47 H273        -1.8780     2.3570     1.8060 h1         1 KOS       0.026367
     48 H12         -3.3520     1.1190     0.0500 h1         1 KOS       0.049700
     49 H131        -2.1070    -1.6130    -0.5160 hc         1 KOS       0.051700
     50 H132        -3.6610    -1.0920    -1.1290 hc         1 KOS       0.051700
     51 H14         -1.1170     0.4470    -1.7860 hc         1 KOS       0.081700
     52 H281        -2.3530     1.2700    -3.7530 hc         1 KOS       0.027033
     53 H282        -3.7890     0.3480    -3.2530 hc         1 KOS       0.027033
     54 H283        -3.1830     1.6770    -2.2400 hc         1 KOS       0.027033
     55 H151        -1.5420    -2.2490    -2.6120 hc         1 KOS       0.042700
     56 H152        -2.0150    -1.3170    -3.9790 hc         1 KOS       0.042700
     57 H29         -1.2000    -0.8430    -5.4880 hn         1 KOS       0.486000
     58 H301         0.6180     0.6920    -7.0890 h1         1 KOS       0.064700
     59 H302         0.7520    -1.0130    -7.5700 h1         1 KOS       0.064700
     60 H311        -1.7360    -1.0910    -7.8850 h1         1 KOS       0.035200
     61 H312        -1.8360     0.6290    -7.5050 h1         1 KOS       0.035200
     62 H331        -2.0360     0.2270   -11.2570 h1         1 KOS       0.033200
     63 H332        -2.6790    -0.9260   -10.0710 h1         1 KOS       0.033200
     64 H333        -2.9690     0.8170    -9.8600 h1         1 KOS       0.033200
     65 H341        -0.1600     1.6540   -10.7080 h1         1 KOS       0.033200
     66 H342        -0.8840     2.3080    -9.2210 h1         1 KOS       0.033200
     67 H343         0.6970     1.4880    -9.1680 h1         1 KOS       0.033200
     68 H19          4.0250    -0.3680    -3.6940 ha         1 KOS       0.207000
     69 HN1          4.1410    -1.0440    -1.1600 hn         1 KOS       0.335500
     70 H221         4.9420    -1.4560     2.2450 hc         1 KOS       0.045033
     71 H222         4.5330    -1.9930     0.6350 hc         1 KOS       0.045033
     72 H223         5.6330    -0.6200     0.8510 hc         1 KOS       0.045033
     73 H3           2.1740     1.1320     2.1850 ha         1 KOS       0.200000
     74 H4           4.5390     0.0110     3.8620 ha         1 KOS       0.178000
     75 H5           3.2570     0.7000     5.7770 ha         1 KOS       0.189000
     76 H6           1.2450     2.0010     3.9060 h1         1 KOS       0.056700
     77 H231         1.7730     3.9940     6.8970 h1         1 KOS       0.030700
     78 H232         3.0540     3.2620     5.9100 h1         1 KOS       0.030700
     79 H233         1.6680     4.0590     5.1250 h1         1 KOS       0.030700
     80 H7           0.6810    -0.4650     3.9950 h1         1 KOS       0.078700
     81 HN21        -0.4570    -3.0560     7.6050 hn         1 KOS       0.327500
     82 HN22         0.1180    -1.4770     8.1120 hn         1 KOS       0.327500
     83 H251        -2.7030     2.0600     4.9300 hc         1 KOS       0.040033
     84 H252        -1.5290     1.7610     6.2040 hc         1 KOS       0.040033
     85 H253        -1.1060     2.7840     4.8180 hc         1 KOS       0.040033
     86 H9          -1.3630    -0.9390     3.0240 ha         1 KOS       0.184000
     87 H10         -3.4690     1.2410     2.9450 hc         1 KOS       0.061700
     88 H261        -3.9620    -0.0390     5.0790 hc         1 KOS       0.038367
     89 H262        -5.2620    -0.1350     3.8920 hc         1 KOS       0.038367
     90 H263        -4.1520    -1.5120     4.1140 hc         1 KOS       0.038367
     91 H11         -3.1650    -1.4850     1.6220 h1         1 KOS       0.038700
     92 HO5         -5.3540    -1.0100     1.9840 ho         1 KOS       0.505000
@<TRIPOS>BOND
     1     1     2 1   
     2     1    45 1   
     3     1    46 1   
     4     1    47 1   
     5     2     3 1   
     6     3     4 1   
     7     3    41 1   
     8     3    48 1   
     9     4     5 1   
    10     4    49 1   
    11     4    50 1   
    12     5     6 1   
    13     5     7 1   
    14     5    51 1   
    15     6    52 1   
    16     6    53 1   
    17     6    54 1   
    18     7     8 1   
    19     7    55 1   
    20     7    56 1   
    21     8     9 2   
    22     8    43 1   
    23     9    10 1   
    24     9    16 1   
    25    10    11 1   
    26    10    57 1   
    27    11    12 1   
    28    11    58 1   
    29    11    59 1   
    30    12    13 1   
    31    12    60 1   
    32    12    61 1   
    33    13    14 1   
    34    13    15 1   
    35    14    62 1   
    36    14    63 1   
    37    14    64 1   
    38    15    65 1   
    39    15    66 1   
    40    15    67 1   
    41    16    17 2   
    42    16    18 1   
    43    18    19 2   
    44    18    68 1   
    45    19    20 1   
    46    19    43 1   
    47    20    21 1   
    48    20    69 1   
    49    21    22 2   
    50    21    23 1   
    51    23    24 1   
    52    23    25 2   
    53    24    70 1   
    54    24    71 1   
    55    24    72 1   
    56    25    26 1   
    57    25    73 1   
    58    26    27 2   
    59    26    74 1   
    60    27    28 1   
    61    27    75 1   
    62    28    29 1   
    63    28    31 1   
    64    28    76 1   
    65    29    30 1   
    66    30    77 1   
    67    30    78 1   
    68    30    79 1   
    69    31    32 1   
    70    31    36 1   
    71    31    80 1   
    72    32    33 1   
    73    33    34 1   
    74    33    35 2   
    75    34    81 1   
    76    34    82 1   
    77    36    37 1   
    78    36    38 2   
    79    37    83 1   
    80    37    84 1   
    81    37    85 1   
    82    38    39 1   
    83    38    86 1   
    84    39    40 1   
    85    39    41 1   
    86    39    87 1   
    87    40    88 1   
    88    40    89 1   
    89    40    90 1   
    90    41    42 1   
    91    41    91 1   
    92    42    92 1   
    93    43    44 2   
@<TRIPOS>SUBSTRUCTURE
     1 KOS         1 TEMP              0 ****  ****    0 ROOT
