@<TRIPOS>MOLECULE
KOS
   92    93     1     0     0
SMALL
abcg2


@<TRIPOS>ATOM
      1 C27         -1.1470     1.7520     1.0050 c3         1 KOS       0.152900
      2 O6          -1.3570     0.3740     0.8680 os         1 KOS      -0.446000
      3 C12         -2.6260     0.0010     0.3840 c3         1 KOS       0.176300
      4 C13         -2.4290    -0.9480    -0.8000 c3         1 KOS      -0.074400
      5 C14         -1.5240    -0.4010    -1.9040 c3         1 KOS      -0.064700
      6 C28         -2.1570     0.7420    -2.6890 c3         1 KOS      -0.084100
      7 C15         -1.0720    -1.5250    -2.8650 c3         1 KOS      -0.000200
      8 C16          0.3440    -1.3100    -3.3210 cc         1 KOS      -0.319400
      9 C17          0.7380    -0.9510    -4.5800 cd         1 KOS       0.152800
     10 N29         -0.1290    -0.7580    -5.5900 nu         1 KOS      -0.818200
     11 C30          0.0770    -0.1900    -6.9100 c3         1 KOS       0.236800
     12 C31         -1.2620     0.3370    -7.4160 c3         1 KOS       0.142800
     13 N32         -1.2040     0.7490    -8.8010 n3         1 KOS      -0.710600
     14 C33         -2.5340     0.9400    -9.3410 c3         1 KOS       0.148600
     15 C34         -0.3970     1.9350    -9.0010 c3         1 KOS       0.148600
     16 C18          2.2160    -0.8820    -4.8800 c          1 KOS       0.574500
     17 O8           2.6240    -0.9220    -6.0220 o          1 KOS      -0.509100
     18 C19          3.1440    -0.7300    -3.7560 cc         1 KOS      -0.337200
     19 C20          2.7190    -0.9430    -2.5100 cd         1 KOS       0.049400
     20 N1           3.4910    -0.8080    -1.3700 ns         1 KOS      -0.431100
     21 C1           2.9580    -0.1230    -0.3060 c          1 KOS       0.619300
     22 O1           1.9730     0.5740    -0.4740 o          1 KOS      -0.571100
     23 C2           3.6120    -0.3120     1.0170 ce         1 KOS      -0.176400
     24 C22          4.9040    -1.0640     1.0980 c3         1 KOS      -0.052900
     25 C3           2.9170     0.1680     2.0650 cf         1 KOS      -0.110000
     26 C4           3.2540     0.0630     3.4680 cf         1 KOS      -0.190000
     27 C5           2.4670     0.4780     4.4710 c2         1 KOS      -0.209200
     28 C6           1.1120     1.1200     4.3480 c3         1 KOS       0.196500
     29 O2           1.0610     2.2910     5.1240 os         1 KOS      -0.435000
     30 C23          1.7140     3.3840     4.5230 c3         1 KOS       0.139900
     31 C7          -0.0050     0.1650     4.7880 c3         1 KOS       0.244500
     32 O3           0.0880     0.0660     6.2110 os         1 KOS      -0.450100
     33 C24         -0.3550    -1.0580     6.7920 c          1 KOS       0.642100
     34 N2          -0.3490    -0.9330     8.1290 nt         1 KOS      -0.604000
     35 O4          -0.7090    -2.0470     6.1860 o          1 KOS      -0.547000
     36 C8          -1.3810     0.5930     4.3410 c2         1 KOS      -0.163400
     37 C25         -1.9270     1.8970     4.8460 c3         1 KOS      -0.040900
     38 C9          -2.0190    -0.2030     3.4820 c2         1 KOS      -0.156200
     39 C10         -3.3730     0.0150     2.8660 c3         1 KOS      -0.054500
     40 C26         -4.4360    -0.5590     3.8120 c3         1 KOS      -0.092100
     41 C11         -3.4570    -0.6730     1.4880 c3         1 KOS       0.155300
     42 O5          -4.7770    -0.7040     0.9870 oh         1 KOS      -0.726000
     43 C21          1.3410    -1.5110    -2.2930 c          1 KOS       0.585500
     44 O9           1.1220    -2.1200    -1.2610 o          1 KOS      -0.509100
     45 H271        -0.1010     1.9040     1.2700 h1         1 KOS       0.026367
     46 H272        -1.3360     2.2930     0.0700 h1         1 KOS       0.026367
     47 H273        -1.7690     2.2020     1.7870 h1         1 KOS       0.026367
     48 H12         -3.1840     0.8920     0.0570 h1         1 KOS       0.049700
     49 H131        -1.9770    -1.8690    -0.4160 hc         1 KOS       0.051700
     50 H132        -3.4050    -1.2280    -1.2070 hc         1 KOS       0.051700
     51 H14         -0.6280    -0.0150    -1.4130 hc         1 KOS       0.081700
     52 H281        -1.5030     1.0730    -3.4990 hc         1 KOS       0.027033
     53 H282        -3.1060     0.4350    -3.1370 hc         1 KOS       0.027033
     54 H283        -2.3520     1.6150    -2.0630 hc         1 KOS       0.027033
     55 H151        -1.1240    -2.4900    -2.3560 hc         1 KOS       0.042700
     56 H152        -1.7780    -1.6060    -3.6970 hc         1 KOS       0.042700
     57 H29         -1.0910    -0.9510    -5.3610 hn         1 KOS       0.486000
     58 H301         0.8070     0.6150    -6.8580 h1         1 KOS       0.064700
     59 H302         0.4520    -0.9350    -7.6150 h1         1 KOS       0.064700
     60 H311        -1.9980    -0.4710    -7.3400 h1         1 KOS       0.035200
     61 H312        -1.6130     1.1480    -6.7530 h1         1 KOS       0.035200
     62 H331        -2.4710     1.1870   -10.4010 h1         1 KOS       0.033200
     63 H332        -3.1150     0.0220    -9.2450 h1         1 KOS       0.033200
     64 H333        -3.0950     1.7470    -8.8440 h1         1 KOS       0.033200
     65 H341        -0.3850     2.1960   -10.0590 h1         1 KOS       0.033200
     66 H342        -0.7720     2.8100    -8.4460 h1         1 KOS       0.033200
     67 H343         0.6360     1.7660    -8.6980 h1         1 KOS       0.033200
     68 H19          4.1580    -0.4280    -3.9880 ha         1 KOS       0.207000
     69 HN1          4.4480    -1.1290    -1.3700 hn         1 KOS       0.335500
     70 H221         5.2890    -1.1070     2.1130 hc         1 KOS       0.045033
     71 H222         4.7880    -2.0940     0.7510 hc         1 KOS       0.045033
     72 H223         5.6770    -0.6000     0.4820 hc         1 KOS       0.045033
     73 H3           1.9880     0.6640     1.8190 ha         1 KOS       0.200000
     74 H4           4.2010    -0.3920     3.7340 ha         1 KOS       0.178000
     75 H5           2.8240     0.3420     5.4870 ha         1 KOS       0.189000
     76 H6           0.8940     1.3570     3.2990 h1         1 KOS       0.056700
     77 H231         1.6290     4.2330     5.2000 h1         1 KOS       0.030700
     78 H232         2.7770     3.1910     4.3430 h1         1 KOS       0.030700
     79 H233         1.2510     3.6550     3.5670 h1         1 KOS       0.030700
     80 H7           0.2140    -0.8040     4.3340 h1         1 KOS       0.078700
     81 HN21        -0.5900    -1.7240     8.7000 hn         1 KOS       0.327500
     82 HN22        -0.0060    -0.1070     8.5860 hn         1 KOS       0.327500
     83 H251        -2.9970     1.9820     4.6620 hc         1 KOS       0.040033
     84 H252        -1.7730     2.0020     5.9200 hc         1 KOS       0.040033
     85 H253        -1.4440     2.7540     4.3730 hc         1 KOS       0.040033
     86 H9          -1.5440    -1.1450     3.2210 ha         1 KOS       0.184000
     87 H10         -3.5700     1.0850     2.7400 hc         1 KOS       0.061700
     88 H261        -4.3310    -0.1280     4.8070 hc         1 KOS       0.038367
     89 H262        -5.4500    -0.3440     3.4710 hc         1 KOS       0.038367
     90 H263        -4.3300    -1.6420     3.9150 hc         1 KOS       0.038367
     91 H11         -3.0810    -1.7020     1.6240 h1         1 KOS       0.038700
     92 HO5         -5.2770    -1.3710     1.4660 ho         1 KOS       0.505000
@<TRIPOS>BOND
     1     1     2 1   
     2     1    45 1   
     3     1    46 1   
     4     1    47 1   
     5     2     3 1   
     6     3     4 1   
     7     3    41 1   
     8     3    48 1   
     9     4     5 1   
    10     4    49 1   
    11     4    50 1   
    12     5     6 1   
    13     5     7 1   
    14     5    51 1   
    15     6    52 1   
    16     6    53 1   
    17     6    54 1   
    18     7     8 1   
    19     7    55 1   
    20     7    56 1   
    21     8     9 2   
    22     8    43 1   
    23     9    10 1   
    24     9    16 1   
    25    10    11 1   
    26    10    57 1   
    27    11    12 1   
    28    11    58 1   
    29    11    59 1   
    30    12    13 1   
    31    12    60 1   
    32    12    61 1   
    33    13    14 1   
    34    13    15 1   
    35    14    62 1   
    36    14    63 1   
    37    14    64 1   
    38    15    65 1   
    39    15    66 1   
    40    15    67 1   
    41    16    17 2   
    42    16    18 1   
    43    18    19 2   
    44    18    68 1   
    45    19    20 1   
    46    19    43 1   
    47    20    21 1   
    48    20    69 1   
    49    21    22 2   
    50    21    23 1   
    51    23    24 1   
    52    23    25 2   
    53    24    70 1   
    54    24    71 1   
    55    24    72 1   
    56    25    26 1   
    57    25    73 1   
    58    26    27 2   
    59    26    74 1   
    60    27    28 1   
    61    27    75 1   
    62    28    29 1   
    63    28    31 1   
    64    28    76 1   
    65    29    30 1   
    66    30    77 1   
    67    30    78 1   
    68    30    79 1   
    69    31    32 1   
    70    31    36 1   
    71    31    80 1   
    72    32    33 1   
    73    33    34 1   
    74    33    35 2   
    75    34    81 1   
    76    34    82 1   
    77    36    37 1   
    78    36    38 2   
    79    37    83 1   
    80    37    84 1   
    81    37    85 1   
    82    38    39 1   
    83    38    86 1   
    84    39    40 1   
    85    39    41 1   
    86    39    87 1   
    87    40    88 1   
    88    40    89 1   
    89    40    90 1   
    90    41    42 1   
    91    41    91 1   
    92    42    92 1   
    93    43    44 2   
@<TRIPOS>SUBSTRUCTURE
     1 KOS         1 TEMP              0 ****  ****    0 ROOT
