@<TRIPOS>MOLECULE
KOT
   39    41     1     0     0
SMALL
abcg2


@<TRIPOS>ATOM
      1 C14          4.6670     0.0930    -1.0330 ca         1 KOT      -0.092000
      2 C13          6.0320    -0.0410    -0.8290 ca         1 KOT      -0.113500
      3 C12          6.5260    -0.3460     0.4320 ca         1 KOT      -0.107000
      4 C11          5.6430    -0.5200     1.4890 ca         1 KOT      -0.113500
      5 C10          4.2770    -0.3890     1.2880 ca         1 KOT      -0.092000
      6 C9           3.7720    -0.0790     0.0240 ca         1 KOT      -0.104500
      7 C8           2.3350     0.0640    -0.1920 cc         1 KOT       0.259500
      8 C7           1.2930    -0.0060     0.7020 cd         1 KOT      -0.174000
      9 N3           1.8010     0.3140    -1.4130 nc         1 KOT      -0.355000
     10 N2           0.5250     0.3990    -1.3170 nd         1 KOT      -0.189800
     11 N1           0.2010     0.2090    -0.0490 na         1 KOT       0.127800
     12 C1          -1.1780     0.2320     0.3720 c6         1 KOT       0.326300
     13 O5          -1.7870    -0.9090    -0.1450 os         1 KOT      -0.435000
     14 C5          -3.1300    -1.0770     0.2810 c6         1 KOT       0.177300
     15 C6          -3.6220    -2.3960    -0.2730 c3         1 KOT       0.172600
     16 O6          -2.8610    -3.4350     0.2930 oh         1 KOT      -0.711000
     17 C4          -3.9710     0.1050    -0.2010 c6         1 KOT       0.142300
     18 O4          -5.2780    -0.0640     0.2830 oh         1 KOT      -0.715000
     19 C3          -3.3530     1.4040     0.3060 c6         1 KOT       0.102300
     20 O3          -4.1030     2.4740    -0.2200 oh         1 KOT      -0.663000
     21 C2          -1.8860     1.4960    -0.1060 c6         1 KOT       0.103300
     22 O2          -1.2440     2.5960     0.4840 oh         1 KOT      -0.715000
     23 H14          4.2930     0.3340    -2.0190 ha         1 KOT       0.119500
     24 H13          6.7120     0.0970    -1.6600 ha         1 KOT       0.112000
     25 H12          7.5920    -0.4480     0.5900 ha         1 KOT       0.111000
     26 H11          6.0160    -0.7620     2.4750 ha         1 KOT       0.112000
     27 H10          3.6040    -0.5320     2.1240 ha         1 KOT       0.119500
     28 H7           1.2400    -0.1800     1.7630 h4         1 KOT       0.169000
     29 H1          -1.1650     0.2150     1.4710 h2         1 KOT       0.064700
     30 H5          -3.1690    -1.1130     1.3820 h1         1 KOT       0.062700
     31 H6          -4.6850    -2.4920    -0.0330 h1         1 KOT       0.041200
     32 H6A         -3.5380    -2.3750    -1.3690 h1         1 KOT       0.041200
     33 HO6         -3.2200    -4.2700    -0.0180 ho         1 KOT       0.508000
     34 H4          -3.9520     0.1160    -1.3030 h1         1 KOT       0.062700
     35 HO4         -5.8020     0.6920    -0.0050 ho         1 KOT       0.526000
     36 H3          -3.4040     1.3970     1.4060 h1         1 KOT       0.053700
     37 HO3         -3.9930     3.2400     0.3500 ho         1 KOT       0.457000
     38 H2          -1.8270     1.5360    -1.2010 h1         1 KOT       0.086700
     39 HO2         -1.3130     3.3500    -0.1080 ho         1 KOT       0.522000
@<TRIPOS>BOND
     1     1     2 ar  
     2     1     6 ar  
     3     1    23 1   
     4     2     3 ar  
     5     2    24 1   
     6     3     4 ar  
     7     3    25 1   
     8     4     5 ar  
     9     4    26 1   
    10     5     6 ar  
    11     5    27 1   
    12     6     7 1   
    13     7     8 2   
    14     7     9 1   
    15     8    11 1   
    16     8    28 1   
    17     9    10 2   
    18    10    11 1   
    19    11    12 1   
    20    12    13 1   
    21    12    21 1   
    22    12    29 1   
    23    13    14 1   
    24    14    15 1   
    25    14    17 1   
    26    14    30 1   
    27    15    16 1   
    28    15    31 1   
    29    15    32 1   
    30    16    33 1   
    31    17    18 1   
    32    17    19 1   
    33    17    34 1   
    34    18    35 1   
    35    19    20 1   
    36    19    21 1   
    37    19    36 1   
    38    20    37 1   
    39    21    22 1   
    40    21    38 1   
    41    22    39 1   
@<TRIPOS>SUBSTRUCTURE
     1 KOT         1 TEMP              0 ****  ****    0 ROOT
