@<TRIPOS>MOLECULE
KOT
   39    41     1     0     0
SMALL
No Charge or Current Charge


@<TRIPOS>ATOM
      1 C14          4.7540     0.1490    -1.0320 ca         1 KOT      -0.092000
      2 C13          6.1180    -0.0220    -0.7400 ca         1 KOT      -0.113500
      3 C12          6.5230    -0.3600     0.5600 ca         1 KOT      -0.107000
      4 C11          5.5610    -0.5270     1.5680 ca         1 KOT      -0.113500
      5 C10          4.1960    -0.3560     1.2780 ca         1 KOT      -0.092000
      6 C9           3.7710    -0.0150    -0.0280 ca         1 KOT      -0.104500
      7 C8           2.3460     0.1690    -0.3570 cc         1 KOT       0.259500
      8 C7           1.3480     0.0290     0.5580 cd         1 KOT      -0.174000
      9 N3           1.8590     0.4970    -1.5900 nc         1 KOT      -0.355000
     10 N2           0.5540     0.5700    -1.5000 nd         1 KOT      -0.189800
     11 N1           0.2210     0.2910    -0.1920 na         1 KOT       0.127800
     12 C1          -1.1760     0.2750     0.3120 c6         1 KOT       0.326300
     13 O5          -1.8200    -0.9280    -0.1790 os         1 KOT      -0.435000
     14 C5          -3.1650    -1.1320     0.3270 c6         1 KOT       0.177300
     15 C6          -3.6850    -2.5100    -0.2000 c3         1 KOT       0.172600
     16 O6          -2.8210    -3.6160     0.1440 oh         1 KOT      -0.711000
     17 C4          -4.0770     0.0570    -0.1110 c6         1 KOT       0.142300
     18 O4          -5.4150    -0.0590     0.4050 oh         1 KOT      -0.715000
     19 C3          -3.4520     1.3950     0.3800 c6         1 KOT       0.102300
     20 O3          -4.2470     2.5140    -0.0490 oh         1 KOT      -0.663000
     21 C2          -1.9900     1.5400    -0.1350 c6         1 KOT       0.103300
     22 O2          -1.4260     2.7820     0.3620 oh         1 KOT      -0.715000
     23 H14          4.4660     0.4100    -2.0480 ha         1 KOT       0.119500
     24 H13          6.8620     0.1070    -1.5230 ha         1 KOT       0.112000
     25 H12          7.5790    -0.4930     0.7860 ha         1 KOT       0.111000
     26 H11          5.8730    -0.7890     2.5770 ha         1 KOT       0.112000
     27 H10          3.4780    -0.4930     2.0830 ha         1 KOT       0.119500
     28 H7           1.3370    -0.2200     1.6090 h4         1 KOT       0.169000
     29 H1          -1.1100     0.2420     1.4090 h2         1 KOT       0.064700
     30 H5          -3.1280    -1.1790     1.4260 h1         1 KOT       0.062700
     31 H6          -4.6890    -2.6790     0.2120 h1         1 KOT       0.041200
     32 H6A         -3.7890    -2.4390    -1.2910 h1         1 KOT       0.041200
     33 HO6         -3.2010    -4.4210    -0.2800 ho         1 KOT       0.508000
     34 H4          -4.1050     0.0750    -1.2120 h1         1 KOT       0.062700
     35 HO4         -5.7790     0.8590     0.3570 ho         1 KOT       0.526000
     36 H3          -3.4170     1.3720     1.4810 h1         1 KOT       0.053700
     37 HO3         -3.6630     3.3000     0.0670 ho         1 KOT       0.457000
     38 H2          -2.0210     1.5510    -1.2360 h1         1 KOT       0.086700
     39 HO2         -0.6230     2.9840    -0.1770 ho         1 KOT       0.522000
@<TRIPOS>BOND
     1     1     2 ar  
     2     1     6 ar  
     3     1    23 1   
     4     2     3 ar  
     5     2    24 1   
     6     3     4 ar  
     7     3    25 1   
     8     4     5 ar  
     9     4    26 1   
    10     5     6 ar  
    11     5    27 1   
    12     6     7 1   
    13     7     8 2   
    14     7     9 1   
    15     8    11 1   
    16     8    28 1   
    17     9    10 2   
    18    10    11 1   
    19    11    12 1   
    20    12    13 1   
    21    12    21 1   
    22    12    29 1   
    23    13    14 1   
    24    14    15 1   
    25    14    17 1   
    26    14    30 1   
    27    15    16 1   
    28    15    31 1   
    29    15    32 1   
    30    16    33 1   
    31    17    18 1   
    32    17    19 1   
    33    17    34 1   
    34    18    35 1   
    35    19    20 1   
    36    19    21 1   
    37    19    36 1   
    38    20    37 1   
    39    21    22 1   
    40    21    38 1   
    41    22    39 1   
@<TRIPOS>SUBSTRUCTURE
     1 KOT         1 TEMP              0 ****  ****    0 ROOT
