@<TRIPOS>MOLECULE
KOV
   44    46     1     0     0
SMALL
No Charge or Current Charge


@<TRIPOS>ATOM
      1 S            0.6430     0.9270     1.0830 ss         1 KOV      -0.497000
      2 C1          -5.1610    -1.4280     1.6240 c3         1 KOV       0.155900
      3 N1          -4.3360     0.6580     0.9690 n2         1 KOV      -0.305700
      4 O1          -4.7300    -0.6170     0.5160 os         1 KOV      -0.294000
      5 C2          -3.9660     1.4710     0.0170 ce         1 KOV       0.291300
      6 N2          -2.0500    -0.0020    -0.4780 ns         1 KOV      -0.458900
      7 O2          -4.4000     3.6220    -1.1770 os         1 KOV      -0.206000
      8 C3          -4.7410     2.7050    -0.2000 cc         1 KOV       0.085700
      9 N3           1.0080    -1.1830    -0.2950 nj         1 KOV      -0.281000
     10 O3          -2.2700     1.8940    -1.6950 o          1 KOV      -0.575100
     11 C4          -5.8590     3.1640     0.4520 cd         1 KOV      -0.133000
     12 N4           7.1450     0.5420    -1.1320 nt         1 KOV      -0.617000
     13 C5          -6.2200     4.3940    -0.1310 cd         1 KOV      -0.211000
     14 O5           5.2840    -0.0880    -0.1280 os         1 KOV      -0.473100
     15 C6          -5.3140     4.6500    -1.1210 cc         1 KOV       0.153900
     16 O6           7.3180    -0.4740     0.8730 o          1 KOV      -0.557000
     17 C7          -2.7090     1.1740    -0.8030 c          1 KOV       0.522800
     18 O7           4.1520    -3.0360    -0.7870 o          1 KOV      -0.683000
     19 C8          -0.7990    -0.4370    -1.0850 cy         1 KOV       0.006700
     20 O8           2.2640    -3.2830    -1.7540 o          1 KOV      -0.683000
     21 C9           0.5680     0.1760    -0.6030 cy         1 KOV       0.195700
     22 C10         -0.1770    -1.8170    -0.6760 c          1 KOV       0.576000
     23 C11          2.4240    -1.4700    -0.2280 ce         1 KOV       0.030400
     24 C12          3.0890    -0.6230     0.6270 c2         1 KOV      -0.252400
     25 C13          2.4520     0.6070     1.2900 c6         1 KOV       0.140800
     26 C14          4.5720    -0.7010     0.9600 c3         1 KOV       0.247800
     27 C15          6.6370    -0.0490    -0.0430 c          1 KOV       0.642100
     28 C16          2.9920    -2.6910    -0.9680 c          1 KOV       0.724200
     29 H1          -5.4670    -2.4200     1.2720 h1         1 KOV       0.040367
     30 H1A         -4.3490    -1.5590     2.3510 h1         1 KOV       0.040367
     31 H1B         -6.0160    -0.9680     2.1350 h1         1 KOV       0.040367
     32 HN2         -2.4820    -0.5530     0.2580 hn         1 KOV       0.339500
     33 H4          -6.3700     2.6630     1.2700 ha         1 KOV       0.147000
     34 HN4          8.1430     0.6490    -1.2220 hn         1 KOV       0.318000
     35 HN4A         6.5190     0.8690    -1.8510 hn         1 KOV       0.318000
     36 H5          -7.0580     5.0260     0.1460 ha         1 KOV       0.138000
     37 H6          -5.2050     5.4700    -1.8180 h4         1 KOV       0.059100
     38 H8          -0.9120    -0.3830    -2.1720 h1         1 KOV       0.107700
     39 H9           1.1770     0.7280    -1.3280 h2         1 KOV       0.098700
     40 H13          2.9630     1.5000     0.9020 h1         1 KOV       0.060200
     41 H13A         2.6460     0.5840     2.3730 h1         1 KOV       0.060200
     42 H14          4.8890    -1.7390     1.1160 h1         1 KOV       0.073700
     43 H14A         4.7810    -0.1680     1.8980 h1         1 KOV       0.073700
     44 O4          -0.5460    -2.9840    -0.7080 o          1 KOV      -0.460000
@<TRIPOS>BOND
     1     1    21 1   
     2     1    25 1   
     3     2     4 1   
     4     2    29 1   
     5     2    30 1   
     6     2    31 1   
     7     3     4 1   
     8     3     5 2   
     9     5     8 1   
    10     5    17 1   
    11     6    17 1   
    12     6    19 1   
    13     6    32 1   
    14     7     8 1   
    15     7    15 1   
    16     8    11 2   
    17     9    21 1   
    18     9    22 1   
    19     9    23 1   
    20    10    17 2   
    21    11    13 1   
    22    11    33 1   
    23    12    27 1   
    24    12    34 1   
    25    12    35 1   
    26    13    15 2   
    27    13    36 1   
    28    14    26 1   
    29    14    27 1   
    30    15    37 1   
    31    16    27 2   
    32    18    28 1   
    33    19    21 1   
    34    19    22 1   
    35    19    38 1   
    36    20    28 1   
    37    21    39 1   
    38    22    44 2   
    39    23    24 2   
    40    23    28 1   
    41    24    25 1   
    42    24    26 1   
    43    25    40 1   
    44    25    41 1   
    45    26    42 1   
    46    26    43 1   
@<TRIPOS>SUBSTRUCTURE
     1 KOV         1 TEMP              0 ****  ****    0 ROOT
