@<TRIPOS>MOLECULE
KOV
   44    46     1     0     0
SMALL
bcc


@<TRIPOS>ATOM
      1 S            0.3950     1.2250    -0.3050 ss         1 KOV      -0.401200
      2 C1          -6.4310    -1.6720     0.6230 c3         1 KOV       0.132700
      3 N1          -5.1990     0.2360     0.4550 n2         1 KOV      -0.404200
      4 O1          -5.2660    -1.0660     0.0860 os         1 KOV      -0.172300
      5 C2          -4.1610     0.8150    -0.0020 ce         1 KOV       0.291300
      6 N2          -2.1520    -0.4700    -0.2530 ns         1 KOV      -0.525900
      7 O2          -2.8050     2.7500    -0.2080 os         1 KOV      -0.294800
      8 C3          -3.9300     2.2080     0.3070 cc         1 KOV       0.195400
      9 N3           0.9220    -1.3880    -0.4560 nj         1 KOV      -0.348000
     10 O3          -3.2780     0.1670    -2.1140 o          1 KOV      -0.575100
     11 C4          -4.6030     3.1400     1.0370 cd         1 KOV      -0.216300
     12 N4           6.8070     1.6050    -1.1720 nt         1 KOV      -0.684000
     13 C5          -3.8300     4.3300     0.9590 cd         1 KOV      -0.294300
     14 O5           4.9820     0.6270    -0.4040 os         1 KOV      -0.449900
     15 C6          -2.7520     4.0330     0.1920 cc         1 KOV       0.263600
     16 O6           6.7180     0.9430     0.9970 o          1 KOV      -0.606000
     17 C7          -3.1590     0.1320    -0.9060 c          1 KOV       0.589800
     18 O7           3.4040    -2.7000     1.6060 o          1 KOV      -0.788300
     19 C8          -1.0830    -1.1190    -0.9380 cy         1 KOV       0.006700
     20 O8           2.5180    -3.6110    -0.2320 o          1 KOV      -0.788300
     21 C9           0.2350    -0.3420    -1.1820 cy         1 KOV       0.147800
     22 C10         -0.2150    -2.0350    -0.0660 c          1 KOV       0.718500
     23 C11          2.2020    -1.3210     0.0940 ce         1 KOV       0.030400
     24 C12          2.8240    -0.1330     0.1370 c2         1 KOV      -0.252400
     25 C13          2.2130     1.1620    -0.3460 c6         1 KOV       0.092900
     26 C14          4.2200     0.0260     0.6530 c3         1 KOV       0.224600
     27 C15          6.2150     1.0500    -0.1040 c          1 KOV       0.758100
     28 C16          2.7660    -2.6740     0.5410 c          1 KOV       0.934800
     29 H1          -6.4000    -2.7120     0.3060 h1         1 KOV       0.040367
     30 H1A         -6.4380    -1.6280     1.7130 h1         1 KOV       0.040367
     31 H1B         -7.3390    -1.2060     0.2360 h1         1 KOV       0.040367
     32 HN2         -2.1210    -0.4140     0.7540 hn         1 KOV       0.339500
     33 H4          -5.5310     2.9940     1.5640 ha         1 KOV       0.165000
     34 HN4          7.7500     1.9420    -1.0970 hn         1 KOV       0.318000
     35 HN4A         6.3610     1.6420    -2.0730 hn         1 KOV       0.318000
     36 H5          -4.0470     5.2820     1.4160 ha         1 KOV       0.156000
     37 H6          -1.9040     4.6090    -0.1410 h4         1 KOV       0.059100
     38 H8          -1.4430    -1.6040    -1.8460 h1         1 KOV       0.107700
     39 H9           0.5540    -0.2430    -2.2200 h2         1 KOV       0.098700
     40 H13          2.5460     1.4000    -1.3580 h1         1 KOV       0.060200
     41 H13A         2.5450     1.9820     0.2940 h1         1 KOV       0.060200
     42 H14          4.6600    -0.9230     0.9470 h1         1 KOV       0.073700
     43 H14A         4.2160     0.6860     1.5260 h1         1 KOV       0.073700
     44 O4          -0.4370    -2.9240     0.7090 o          1 KOV      -0.535500
@<TRIPOS>BOND
     1     1    21 1   
     2     1    25 1   
     3     2     4 1   
     4     2    29 1   
     5     2    30 1   
     6     2    31 1   
     7     3     4 1   
     8     3     5 2   
     9     5     8 1   
    10     5    17 1   
    11     6    17 1   
    12     6    19 1   
    13     6    32 1   
    14     7     8 1   
    15     7    15 1   
    16     8    11 2   
    17     9    21 1   
    18     9    22 1   
    19     9    23 1   
    20    10    17 2   
    21    11    13 1   
    22    11    33 1   
    23    12    27 1   
    24    12    34 1   
    25    12    35 1   
    26    13    15 2   
    27    13    36 1   
    28    14    26 1   
    29    14    27 1   
    30    15    37 1   
    31    16    27 2   
    32    18    28 1   
    33    19    21 1   
    34    19    22 1   
    35    19    38 1   
    36    20    28 1   
    37    21    39 1   
    38    22    44 2   
    39    23    24 2   
    40    23    28 1   
    41    24    25 1   
    42    24    26 1   
    43    25    40 1   
    44    25    41 1   
    45    26    42 1   
    46    26    43 1   
@<TRIPOS>SUBSTRUCTURE
     1 KOV         1 TEMP              0 ****  ****    0 ROOT
