@<TRIPOS>MOLECULE
KOW
   60    63     1     0     0
SMALL
No Charge or Current Charge


@<TRIPOS>ATOM
      1 C10        -23.9130    10.7110     0.1520 c6         1 KOW       0.143300
      2 C12        -25.3040    10.2630    -0.3810 c6         1 KOW       0.092300
      3 C14        -25.3760    10.4270    -1.9260 c6         1 KOW       0.140300
      4 O15        -26.6570     9.9540    -2.3860 oh         1 KOW      -0.722000
      5 C20        -18.6050     9.3270    -0.9530 c6         1 KOW       0.150300
      6 N23        -16.4070     8.2490    -1.6440 na         1 KOW       0.123800
      7 C26        -13.1460     8.6970    -0.1630 ca         1 KOW      -0.076500
      8 C27        -13.2240     9.0440     1.2050 ca         1 KOW      -0.148000
      9 C28        -12.0560     9.2600     1.9530 ca         1 KOW       0.163000
     10 C30        -10.7000     8.7910    -0.0030 ca         1 KOW      -0.088000
     11 C31        -11.8680     8.5740    -0.7570 ca         1 KOW      -0.098000
     12 C02        -18.4220     6.7790    -1.2960 c6         1 KOW       0.132300
     13 C03        -19.9770     6.7800    -1.4610 c6         1 KOW       0.158300
     14 C04        -20.6400     5.4280    -1.0370 c3         1 KOW       0.172600
     15 C07        -20.1550     9.1650    -1.0960 c6         1 KOW       0.250300
     16 C09        -22.8040     9.9060    -0.6010 c6         1 KOW       0.294300
     17 C16        -24.1850     9.6640    -2.5900 c6         1 KOW       0.168300
     18 C22        -17.8870     8.1800    -1.7350 c6         1 KOW       0.067300
     19 C24        -15.6670     8.5480    -0.5220 cc         1 KOW      -0.177000
     20 C25        -14.3740     8.4670    -0.9550 cd         1 KOW       0.245500
     21 C29        -10.7940     9.1360     1.3550 ca         1 KOW      -0.145000
     22 F34        -12.1490     9.5910     3.2590 f          1 KOW      -0.186000
     23 N32        -14.3650     8.1220    -2.2910 nd         1 KOW      -0.349000
     24 N33        -15.5940     7.9870    -2.7090 nc         1 KOW      -0.196800
     25 O01        -18.0380     6.4840     0.0680 oh         1 KOW      -0.708000
     26 O05        -22.0700     5.4130    -1.2300 oh         1 KOW      -0.723000
     27 O06        -20.5620     7.8480    -0.6750 os         1 KOW      -0.411000
     28 O11        -23.8570    10.5230     1.5860 oh         1 KOW      -0.703000
     29 O13        -26.3580    11.0070     0.2590 oh         1 KOW      -0.670000
     30 O19        -22.9280    10.1210    -2.0240 os         1 KOW      -0.441000
     31 O21        -18.1710    10.6210    -1.4310 oh         1 KOW      -0.710000
     32 S08        -21.0980    10.3980    -0.0960 ss         1 KOW      -0.306000
     33 H101       -23.7740    11.7760    -0.0920 h1         1 KOW       0.072700
     34 H121       -25.4180     9.1930    -0.1480 h1         1 KOW       0.054700
     35 H141       -25.2640    11.4970    -2.1630 h1         1 KOW       0.082700
     36 H151       -27.2920    10.2510    -1.6900 ho         1 KOW       0.517000
     37 H201       -18.3640     9.2240     0.1160 h1         1 KOW       0.069700
     38 H271       -14.1860     9.1480     1.6980 ha         1 KOW       0.126000
     39 H301        -9.7240     8.6930    -0.4740 ha         1 KOW       0.119000
     40 H311       -11.7720     8.3080    -1.8080 ha         1 KOW       0.139000
     41 H021       -18.0080     6.0190    -1.9770 h1         1 KOW       0.060700
     42 H031       -20.2240     6.9480    -2.5200 h1         1 KOW       0.058700
     43 H042       -20.1730     4.6230    -1.6220 h1         1 KOW       0.042700
     44 H041       -20.4010     5.2430     0.0190 h1         1 KOW       0.042700
     45 H071       -20.4440     9.3220    -2.1460 h2         1 KOW       0.071700
     46 H091       -22.9100     8.8340    -0.3750 h2         1 KOW       0.075700
     47 H161       -24.2870     8.5870    -2.3910 h1         1 KOW       0.049700
     48 H221       -18.1420     8.3080    -2.7970 h1         1 KOW       0.105700
     49 H241       -16.0960     8.7820     0.4410 h4         1 KOW       0.175000
     50 H291        -9.8950     9.3050     1.9420 ha         1 KOW       0.132000
     51 H011       -17.1560     6.0430     0.0400 ho         1 KOW       0.512000
     52 H051       -22.4000     4.5570    -0.8690 ho         1 KOW       0.509000
     53 H111       -22.9620    10.8140     1.8820 ho         1 KOW       0.513000
     54 H131       -26.0810    11.0800     1.2030 ho         1 KOW       0.451000
     55 H181       -23.7620    11.2220    -5.5270 ho         1 KOW       0.505000
     56 H211       -18.6380    11.3030    -0.8910 ho         1 KOW       0.532000
     57 C17        -24.1220     9.8660    -4.1410 c3         1 KOW       0.174600
     58 O18        -23.8360    11.2240    -4.5450 oh         1 KOW      -0.717000
     59 H171       -25.0760     9.5340    -4.5720 h1         1 KOW       0.039700
     60 H172       -23.3470     9.1910    -4.5300 h1         1 KOW       0.039700
@<TRIPOS>BOND
     1     1     2 1   
     2     1    16 1   
     3     1    28 1   
     4     1    33 1   
     5     2     3 1   
     6     2    29 1   
     7     2    34 1   
     8     3     4 1   
     9     3    17 1   
    10     3    35 1   
    11     4    36 1   
    12     5    15 1   
    13     5    18 1   
    14     5    31 1   
    15     5    37 1   
    16     6    18 1   
    17     6    19 1   
    18     6    24 1   
    19     7     8 ar  
    20     7    11 ar  
    21     7    20 1   
    22     8     9 ar  
    23     8    38 1   
    24     9    21 ar  
    25     9    22 1   
    26    10    11 ar  
    27    10    21 ar  
    28    10    39 1   
    29    11    40 1   
    30    12    13 1   
    31    12    18 1   
    32    12    25 1   
    33    12    41 1   
    34    13    14 1   
    35    13    27 1   
    36    13    42 1   
    37    14    26 1   
    38    14    43 1   
    39    14    44 1   
    40    15    27 1   
    41    15    32 1   
    42    15    45 1   
    43    16    30 1   
    44    16    32 1   
    45    16    46 1   
    46    17    30 1   
    47    17    47 1   
    48    17    57 1   
    49    18    48 1   
    50    19    20 2   
    51    19    49 1   
    52    20    23 1   
    53    21    50 1   
    54    23    24 2   
    55    25    51 1   
    56    26    52 1   
    57    28    53 1   
    58    29    54 1   
    59    31    56 1   
    60    55    58 1   
    61    57    58 1   
    62    57    59 1   
    63    57    60 1   
@<TRIPOS>SUBSTRUCTURE
     1 KOW         1 TEMP              0 ****  ****    0 ROOT
