@<TRIPOS>MOLECULE
KOW
   60    63     1     0     0
SMALL
abcg2


@<TRIPOS>ATOM
      1 C10        -23.9990    10.3910     0.0940 c6         1 KOW       0.143300
      2 C12        -25.2410    10.4170    -0.7960 c6         1 KOW       0.092300
      3 C14        -24.9410    11.0530    -2.1450 c6         1 KOW       0.140300
      4 O15        -26.0620    10.9470    -3.0150 oh         1 KOW      -0.722000
      5 C20        -18.9160     8.8750    -0.7140 c6         1 KOW       0.150300
      6 N23        -16.7240     8.0520    -1.4810 na         1 KOW       0.123800
      7 C26        -13.3420     8.8640    -0.5380 ca         1 KOW      -0.076500
      8 C27        -13.2060     9.0560     0.8410 ca         1 KOW      -0.148000
      9 C28        -11.9670     9.3890     1.3480 ca         1 KOW       0.163000
     10 C30        -10.9860     9.3480    -0.8130 ca         1 KOW      -0.088000
     11 C31        -12.2190     9.0150    -1.3590 ca         1 KOW      -0.098000
     12 C02        -18.4140     6.3830    -0.7800 c6         1 KOW       0.132300
     13 C03        -19.9240     6.1610    -0.7380 c6         1 KOW       0.158300
     14 C04        -20.3040     4.8540    -0.0830 c3         1 KOW       0.172600
     15 C07        -20.3980     8.4780    -0.6470 c6         1 KOW       0.250300
     16 C09        -22.8700     9.7100    -0.6750 c6         1 KOW       0.294300
     17 C16        -23.7580    10.3360    -2.7930 c6         1 KOW       0.168300
     18 C22        -18.1480     7.7580    -1.4170 c6         1 KOW       0.067300
     19 C24        -15.8760     8.4040    -0.4940 cc         1 KOW      -0.177000
     20 C25        -14.6430     8.5120    -1.1080 cd         1 KOW       0.245500
     21 C29        -10.8420     9.5420     0.5580 ca         1 KOW      -0.145000
     22 F34        -11.8500     9.5740     2.6890 f          1 KOW      -0.186000
     23 N32        -14.8180     8.2200    -2.4300 nd         1 KOW      -0.349000
     24 N33        -16.0700     7.9440    -2.6510 nc         1 KOW      -0.196800
     25 O01        -17.8870     6.3010     0.5400 oh         1 KOW      -0.708000
     26 O05        -21.6770     4.5910    -0.3680 oh         1 KOW      -0.723000
     27 O06        -20.5620     7.2220    -0.0170 os         1 KOW      -0.411000
     28 O11        -24.2460     9.6670     1.2890 oh         1 KOW      -0.703000
     29 O13        -26.2810    11.1600    -0.1520 oh         1 KOW      -0.670000
     30 O19        -22.6400    10.3880    -1.8970 os         1 KOW      -0.441000
     31 O21        -18.7290    10.0530    -1.4770 oh         1 KOW      -0.710000
     32 S08        -21.3290     9.7280     0.2830 ss         1 KOW      -0.306000
     33 H101       -23.7030    11.4220     0.3200 h1         1 KOW       0.072700
     34 H121       -25.5700     9.3870    -0.9590 h1         1 KOW       0.054700
     35 H141       -24.6770    12.1040    -1.9930 h1         1 KOW       0.082700
     36 H151       -26.8190    11.3320    -2.5540 ho         1 KOW       0.517000
     37 H201       -18.5410     9.0010     0.3070 h1         1 KOW       0.069700
     38 H271       -14.0430     8.9470     1.5180 ha         1 KOW       0.126000
     39 H301       -10.1250     9.4600    -1.4590 ha         1 KOW       0.119000
     40 H311       -12.3170     8.8700    -2.4250 ha         1 KOW       0.139000
     41 H021       -17.9640     5.6180    -1.4170 h1         1 KOW       0.060700
     42 H031       -20.2940     6.1580    -1.7720 h1         1 KOW       0.058700
     43 H042       -19.6650     4.0610    -0.4860 h1         1 KOW       0.042700
     44 H041       -20.1340     4.9230     0.9940 h1         1 KOW       0.042700
     45 H071       -20.8020     8.4560    -1.6660 h2         1 KOW       0.071700
     46 H091       -23.1350     8.6630    -0.8640 h2         1 KOW       0.075700
     47 H161       -24.0340     9.2880    -2.9710 h1         1 KOW       0.049700
     48 H221       -18.4780     7.7200    -2.4560 h1         1 KOW       0.105700
     49 H241       -16.1970     8.5490     0.5200 h4         1 KOW       0.175000
     50 H291        -9.8920     9.8020     1.0040 ha         1 KOW       0.132000
     51 H011       -16.9990     5.9280     0.5000 ho         1 KOW       0.512000
     52 H051       -21.9550     3.8300     0.1540 ho         1 KOW       0.509000
     53 H111       -24.9840    10.0960     1.7420 ho         1 KOW       0.513000
     54 H131       -26.9800    10.5530     0.1180 ho         1 KOW       0.451000
     55 H181       -22.7510    12.6540    -4.8190 ho         1 KOW       0.505000
     56 H211       -19.2460    10.7610    -1.0670 ho         1 KOW       0.532000
     57 C17        -23.3260    10.9230    -4.1180 c3         1 KOW       0.174600
     58 O18        -23.0340    12.3100    -3.9630 oh         1 KOW      -0.717000
     59 H171       -24.1340    10.7710    -4.8390 h1         1 KOW       0.039700
     60 H172       -22.4430    10.3760    -4.4650 h1         1 KOW       0.039700
@<TRIPOS>BOND
     1     1     2 1   
     2     1    16 1   
     3     1    28 1   
     4     1    33 1   
     5     2     3 1   
     6     2    29 1   
     7     2    34 1   
     8     3     4 1   
     9     3    17 1   
    10     3    35 1   
    11     4    36 1   
    12     5    15 1   
    13     5    18 1   
    14     5    31 1   
    15     5    37 1   
    16     6    18 1   
    17     6    19 1   
    18     6    24 1   
    19     7     8 ar  
    20     7    11 ar  
    21     7    20 1   
    22     8     9 ar  
    23     8    38 1   
    24     9    21 ar  
    25     9    22 1   
    26    10    11 ar  
    27    10    21 ar  
    28    10    39 1   
    29    11    40 1   
    30    12    13 1   
    31    12    18 1   
    32    12    25 1   
    33    12    41 1   
    34    13    14 1   
    35    13    27 1   
    36    13    42 1   
    37    14    26 1   
    38    14    43 1   
    39    14    44 1   
    40    15    27 1   
    41    15    32 1   
    42    15    45 1   
    43    16    30 1   
    44    16    32 1   
    45    16    46 1   
    46    17    30 1   
    47    17    47 1   
    48    17    57 1   
    49    18    48 1   
    50    19    20 2   
    51    19    49 1   
    52    20    23 1   
    53    21    50 1   
    54    23    24 2   
    55    25    51 1   
    56    26    52 1   
    57    28    53 1   
    58    29    54 1   
    59    31    56 1   
    60    55    58 1   
    61    57    58 1   
    62    57    59 1   
    63    57    60 1   
@<TRIPOS>SUBSTRUCTURE
     1 KOW         1 TEMP              0 ****  ****    0 ROOT
