@<TRIPOS>MOLECULE
KOX
   25    26     1     0     0
SMALL
No Charge or Current Charge


@<TRIPOS>ATOM
      1 C10        -13.6070    -9.7850    10.5230 ca         1 KOX      -0.093000
      2 C15        -16.2360   -18.6400    11.1300 c2         1 KOX       0.486200
      3 C02        -14.7630   -18.0640    12.8170 c          1 KOX       0.809900
      4 N03        -14.6830   -16.7660    12.3300 ne         1 KOX      -0.687100
      5 C04        -15.0450   -16.5380    11.1120 c2         1 KOX       0.512200
      6 S05        -14.9210   -14.9100    10.3870 ss         1 KOX      -0.251200
      7 C06        -14.1550   -13.9220    11.7500 c3         1 KOX       0.100900
      8 C07        -13.9450   -12.4760    11.3140 ca         1 KOX      -0.078300
      9 C08        -14.9160   -11.5070    11.6400 ca         1 KOX      -0.090000
     10 C09        -14.7480   -10.1680    11.2470 ca         1 KOX      -0.108000
     11 C11        -12.6360   -10.7450    10.1900 ca         1 KOX      -0.103000
     12 C12        -12.8010   -12.0850    10.5810 ca         1 KOX       0.135000
     13 Cl13       -11.5550   -13.2520    10.1340 cl         1 KOX      -0.193000
     14 C14        -15.6500   -17.5880    10.2390 c6         1 KOX      -0.294000
     15 N16        -15.8390   -18.8100    12.3510 ne         1 KOX      -0.630100
     16 H1         -13.4770    -8.7490    10.2180 ha         1 KOX       0.120000
     17 H2         -17.0640   -19.2330    10.7500 h4         1 KOX       0.031800
     18 H3         -14.8140   -13.9560    12.6270 h1         1 KOX       0.103200
     19 H4         -13.2000   -14.3790    12.0400 h1         1 KOX       0.103200
     20 H5         -15.8060   -11.7920    12.1980 ha         1 KOX       0.119000
     21 H6         -15.5020    -9.4280    11.5040 ha         1 KOX       0.121000
     22 H7         -11.7530   -10.4500     9.6280 ha         1 KOX       0.132000
     23 H8         -14.8850   -18.0270     9.5860 hc         1 KOX       0.105200
     24 H9         -16.4340   -17.1580     9.6050 hc         1 KOX       0.105200
     25 O01        -13.9540   -18.5120    13.6080 o          1 KOX      -0.456100
@<TRIPOS>BOND
     1     1    10 ar  
     2     1    11 ar  
     3     1    16 1   
     4     2    14 1   
     5     2    15 2   
     6     2    17 1   
     7     3     4 1   
     8     3    15 1   
     9     3    25 2   
    10     4     5 2   
    11     5     6 1   
    12     5    14 1   
    13     6     7 1   
    14     7     8 1   
    15     7    18 1   
    16     7    19 1   
    17     8     9 ar  
    18     8    12 ar  
    19     9    10 ar  
    20     9    20 1   
    21    10    21 1   
    22    11    12 ar  
    23    11    22 1   
    24    12    13 1   
    25    14    23 1   
    26    14    24 1   
@<TRIPOS>SUBSTRUCTURE
     1 KOX         1 TEMP              0 ****  ****    0 ROOT
