@<TRIPOS>MOLECULE
KOX
   25    26     1     0     0
SMALL
bcc


@<TRIPOS>ATOM
      1 C10        -13.2350   -10.1880    10.3340 ca         1 KOX      -0.111000
      2 C15        -15.3490   -18.6790    10.6930 c2         1 KOX       0.486200
      3 C02        -14.2420   -17.8950    12.5530 c          1 KOX       0.809900
      4 N03        -14.5990   -16.5740    12.2930 ne         1 KOX      -0.687100
      5 C04        -15.3050   -16.2990    11.2650 c2         1 KOX       0.512200
      6 S05        -15.7780   -14.6760    10.8810 ss         1 KOX      -0.203300
      7 C06        -14.9440   -13.6780    12.1620 c3         1 KOX       0.053000
      8 C07        -14.3350   -12.4700    11.5260 ca         1 KOX      -0.078300
      9 C08        -14.9360   -11.2230    11.6740 ca         1 KOX      -0.108000
     10 C09        -14.3950   -10.0880    11.0880 ca         1 KOX      -0.126000
     11 C11        -12.6170   -11.4190    10.1690 ca         1 KOX      -0.121000
     12 C12        -13.1710   -12.5430    10.7620 ca         1 KOX       0.043400
     13 CL13       -12.3840   -14.0710    10.5420 cl         1 KOX      -0.101400
     14 C14        -15.7900   -17.3210    10.2950 c6         1 KOX      -0.294000
     15 N16        -14.6450   -18.9530    11.7120 ne         1 KOX      -0.630100
     16 H1         -12.8040    -9.3100     9.8720 ha         1 KOX       0.138000
     17 H2         -15.6550   -19.5010    10.0510 h4         1 KOX       0.031800
     18 H3         -15.6860   -13.3950    12.9070 h1         1 KOX       0.103200
     19 H4         -14.2090   -14.3250    12.6400 h1         1 KOX       0.103200
     20 H5         -15.8420   -11.1470    12.2620 ha         1 KOX       0.137000
     21 H6         -14.8800    -9.1300    11.2200 ha         1 KOX       0.139000
     22 H7         -11.7110   -11.5050     9.5840 ha         1 KOX       0.150000
     23 H8         -15.4240   -17.1030     9.2860 hc         1 KOX       0.105200
     24 H9         -16.8820   -17.2990    10.2140 hc         1 KOX       0.105200
     25 O01        -13.5730   -18.1490    13.5240 o          1 KOX      -0.456100
@<TRIPOS>BOND
     1     1    10 ar  
     2     1    11 ar  
     3     1    16 1   
     4     2    14 1   
     5     2    15 2   
     6     2    17 1   
     7     3     4 1   
     8     3    15 1   
     9     3    25 2   
    10     4     5 2   
    11     5     6 1   
    12     5    14 1   
    13     6     7 1   
    14     7     8 1   
    15     7    18 1   
    16     7    19 1   
    17     8     9 ar  
    18     8    12 ar  
    19     9    10 ar  
    20     9    20 1   
    21    10    21 1   
    22    11    12 ar  
    23    11    22 1   
    24    12    13 1   
    25    14    23 1   
    26    14    24 1   
@<TRIPOS>SUBSTRUCTURE
     1 KOX         1 TEMP              0 ****  ****    0 ROOT
