@<TRIPOS>MOLECULE
KOY
   62    66     1     0     0
SMALL
bcc


@<TRIPOS>ATOM
      1 C1           4.1080     1.6870    -0.4190 ca         1 KOY       0.470800
      2 C2           3.5370     2.5130     0.5360 ca         1 KOY      -0.226200
      3 C3           3.8220     3.8860     0.4230 ca         1 KOY       0.780200
      4 C4           2.9020     0.5580     1.0150 cc         1 KOY       0.417700
      5 N1           4.6070     4.2820    -0.5860 nb         1 KOY      -0.834000
      6 N2           4.8890     2.0650    -1.4280 nb         1 KOY      -0.742000
      7 C6          -4.7060     2.1190    -0.8250 ca         1 KOY      -0.111600
      8 C7          -4.6360     3.5050    -0.9170 ca         1 KOY      -0.106000
      9 C8          -5.0590     4.3100     0.1310 ca         1 KOY      -0.152000
     10 C9          -5.5620     3.7290     1.2880 ca         1 KOY      -0.161000
     11 C10         -5.6380     2.3460     1.3910 ca         1 KOY      -0.133000
     12 C11         -5.2050     1.5410     0.3420 ca         1 KOY      -0.133600
     13 C12         -5.2810     0.0530     0.5210 c          1 KOY       0.655700
     14 O3          -6.3550    -0.5110     0.5670 o          1 KOY      -0.568100
     15 C13         -3.9930    -0.6240     0.9110 c3         1 KOY      -0.149400
     16 C15         -2.6710    -2.7340     1.0870 ca         1 KOY      -0.024300
     17 C16         -1.5650    -2.5930     0.2610 ca         1 KOY      -0.144000
     18 C17         -2.5250    -3.3980     2.3050 ca         1 KOY      -0.167000
     19 C18         -1.2900    -3.9060     2.6730 ca         1 KOY      -0.104000
     20 C19         -0.1790    -3.7650     1.8490 ca         1 KOY      -0.237000
     21 C20         -0.3210    -3.0990     0.6340 ca         1 KOY       0.127100
     22 C21          1.9910    -3.2900     0.1170 c3         1 KOY       0.129400
     23 C22          2.9210    -2.8380    -0.9900 c5         1 KOY       0.142100
     24 O5           2.8200    -1.4250    -1.1810 os         1 KOY      -0.371600
     25 C23          4.3820    -3.1160    -0.6580 c5         1 KOY       0.086100
     26 O6           5.0890    -3.2910    -1.8570 oh         1 KOY      -0.578800
     27 C24          4.7820    -1.8080     0.0300 c5         1 KOY       0.053100
     28 O7           6.1450    -1.5130    -0.0030 oh         1 KOY      -0.570800
     29 C25          4.0080    -0.7870    -0.8030 c5         1 KOY       0.264800
     30 N3           3.6940     0.4260    -0.0940 na         1 KOY      -0.258000
     31 N4           2.7840     1.7860     1.4220 nd         1 KOY      -0.550100
     32 C26          5.0810     3.3720    -1.4330 ca         1 KOY       0.705900
     33 N5           3.3370     4.7970     1.2670 nv         1 KOY      -0.954500
     34 H1           2.4290    -0.2930     1.4820 h5         1 KOY       0.068800
     35 H5          -5.8970     4.3490     2.1100 ha         1 KOY       0.103000
     36 H6          -6.0260     1.8970     2.2970 ha         1 KOY       0.111000
     37 H7          -3.1530    -0.1510     0.4010 hc         1 KOY       0.057200
     38 H8          -3.8490    -0.4090     1.9790 hc         1 KOY       0.057200
     39 H11         -1.6600    -2.0760    -0.6880 ha         1 KOY       0.174000
     40 H12         -3.3790    -3.5150     2.9610 ha         1 KOY       0.129000
     41 H13         -1.1800    -4.4270     3.6160 ha         1 KOY       0.115000
     42 H14          0.7690    -4.1790     2.1650 ha         1 KOY       0.115000
     43 H15          2.2790    -2.8500     1.0810 h1         1 KOY       0.029200
     44 H16          2.0680    -4.3790     0.2210 h1         1 KOY       0.029200
     45 H17          2.6330    -3.3350    -1.9210 h1         1 KOY       0.109700
     46 H18          4.4920    -3.9800     0.0110 h1         1 KOY       0.050700
     47 H19          6.0220    -3.1230    -1.6800 ho         1 KOY       0.420000
     48 H20          4.3980    -1.8150     1.0580 h1         1 KOY       0.052700
     49 H21          6.5780    -1.9560     0.7330 ho         1 KOY       0.410000
     50 H22          4.5990    -0.4840    -1.6750 h2         1 KOY       0.121700
     51 H23          5.7080     3.7600    -2.2290 h5         1 KOY       0.041100
     52 H24          2.7950     4.5260     2.0690 hn         1 KOY       0.449300
     53 H25          3.6120     5.7600     1.1830 hn         1 KOY       0.449300
     54 H3          -4.2530     3.9540    -1.8240 ha         1 KOY       0.147000
     55 C5          -4.3000     1.2280    -1.9810 c          1 KOY       0.920200
     56 O4           0.6860    -2.9010    -0.2440 os         1 KOY      -0.299900
     57 C14         -3.9880    -2.1320     0.6820 c3         1 KOY      -0.029100
     58 H4          -5.0020     5.3870     0.0450 ha         1 KOY       0.105000
     59 H9          -4.7970    -2.5990     1.2450 hc         1 KOY       0.069200
     60 O1          -3.7670     1.7610    -2.9670 o          1 KOY      -0.816300
     61 O2          -4.5570     0.0130    -1.8280 o          1 KOY      -0.816300
     62 H10         -4.1780    -2.3260    -0.3760 hc         1 KOY       0.069200
@<TRIPOS>BOND
     1     1     2 ar  
     2     1     6 ar  
     3     1    30 1   
     4     2     3 ar  
     5     2    31 1   
     6     3     5 ar  
     7     3    33 1   
     8     4    30 1   
     9     4    31 2   
    10     4    34 1   
    11     5    32 ar  
    12     6    32 ar  
    13     7     8 ar  
    14     7    12 ar  
    15     7    55 1   
    16     8     9 ar  
    17     8    54 1   
    18     9    10 ar  
    19     9    58 1   
    20    10    11 ar  
    21    10    35 1   
    22    11    12 ar  
    23    11    36 1   
    24    12    13 1   
    25    13    14 2   
    26    13    15 1   
    27    15    37 1   
    28    15    38 1   
    29    15    57 1   
    30    16    17 ar  
    31    16    18 ar  
    32    16    57 1   
    33    17    21 ar  
    34    17    39 1   
    35    18    19 ar  
    36    18    40 1   
    37    19    20 ar  
    38    19    41 1   
    39    20    21 ar  
    40    20    42 1   
    41    21    56 1   
    42    22    23 1   
    43    22    43 1   
    44    22    44 1   
    45    22    56 1   
    46    23    24 1   
    47    23    25 1   
    48    23    45 1   
    49    24    29 1   
    50    25    26 1   
    51    25    27 1   
    52    25    46 1   
    53    26    47 1   
    54    27    28 1   
    55    27    29 1   
    56    27    48 1   
    57    28    49 1   
    58    29    30 1   
    59    29    50 1   
    60    32    51 1   
    61    33    52 1   
    62    33    53 1   
    63    55    60 1   
    64    55    61 1   
    65    57    59 1   
    66    57    62 1   
@<TRIPOS>SUBSTRUCTURE
     1 KOY         1 TEMP              0 ****  ****    0 ROOT
