@<TRIPOS>MOLECULE
KOY
   62    66     1     0     0
SMALL
No Charge or Current Charge


@<TRIPOS>ATOM
      1 C1           1.8550     0.8260    -0.0770 ca         1 KOY       0.142500
      2 C2           1.2870     1.0910     1.1440 ca         1 KOY      -0.095600
      3 C3           0.3230     2.1170     1.2210 ca         1 KOY       0.451900
      4 C4           2.6820    -0.5040     1.5060 cc         1 KOY       0.417700
      5 N1          -0.0400     2.8130     0.1330 nb         1 KOY      -0.308000
      6 N2           1.5100     1.5030    -1.1910 nb         1 KOY      -0.216000
      7 C6          -3.3950     2.2790    -1.0070 ca         1 KOY      -0.111600
      8 C7          -3.1040     3.4340    -1.7650 ca         1 KOY      -0.088000
      9 C8          -3.1420     4.7080    -1.1760 ca         1 KOY      -0.134000
     10 C9          -3.4780     4.8430     0.1780 ca         1 KOY      -0.143000
     11 C10         -3.7630     3.7040     0.9470 ca         1 KOY      -0.115000
     12 C11         -3.7140     2.4150     0.3730 ca         1 KOY      -0.133600
     13 C12         -3.9590     1.2200     1.2650 c          1 KOY       0.655700
     14 O3          -5.0020     1.1190     1.9060 o          1 KOY      -0.568100
     15 C13         -2.8140     0.2130     1.4530 c3         1 KOY      -0.149400
     16 C15         -2.0280    -2.1990     1.4090 ca         1 KOY      -0.024300
     17 C16         -1.0390    -2.1800     0.4090 ca         1 KOY      -0.126000
     18 C17         -1.8760    -3.0640     2.5100 ca         1 KOY      -0.149000
     19 C18         -0.7450    -3.8930     2.6110 ca         1 KOY      -0.086000
     20 C19          0.2470    -3.8580     1.6150 ca         1 KOY      -0.219000
     21 C20          0.0980    -2.9950     0.5090 ca         1 KOY       0.127100
     22 C21          2.3520    -3.4740    -0.3710 c3         1 KOY       0.152600
     23 C22          3.2390    -2.9290    -1.5300 c5         1 KOY       0.165300
     24 O5           2.9660    -1.5330    -1.8050 os         1 KOY      -0.418000
     25 C23          4.7690    -2.9210    -1.2310 c5         1 KOY       0.109300
     26 O6           5.5700    -2.7760    -2.4070 oh         1 KOY      -0.701000
     27 C24          4.9070    -1.6280    -0.3590 c5         1 KOY       0.076300
     28 O7           6.2060    -1.0290    -0.5700 oh         1 KOY      -0.693000
     29 C25          3.6960    -0.7270    -0.8520 c5         1 KOY       0.317300
     30 N3           2.7640    -0.1730     0.1450 na         1 KOY      -0.287300
     31 N4           1.7940     0.2710     2.1550 nd         1 KOY      -0.550100
     32 C26          0.5670     2.4630    -1.0260 ca         1 KOY       0.179900
     33 N5          -0.2720     2.4810     2.3890 nv         1 KOY      -1.064900
     34 H1           3.2840    -1.2790     1.9650 h5         1 KOY       0.068800
     35 H5          -3.5120     5.8290     0.6350 ha         1 KOY       0.085000
     36 H6          -4.0060     3.8190     2.0020 ha         1 KOY       0.093000
     37 H7          -2.0080     0.4580     0.7540 hc         1 KOY       0.057200
     38 H8          -2.4140     0.3560     2.4620 hc         1 KOY       0.057200
     39 H11         -1.1390    -1.5160    -0.4460 ha         1 KOY       0.156000
     40 H12         -2.6310    -3.0910     3.2920 ha         1 KOY       0.111000
     41 H13         -0.6350    -4.5570     3.4650 ha         1 KOY       0.097000
     42 H14          1.1140    -4.5040     1.7150 ha         1 KOY       0.097000
     43 H15          2.8020    -3.2020     0.5910 h1         1 KOY       0.029200
     44 H16          2.3050    -4.5690    -0.4270 h1         1 KOY       0.029200
     45 H17          3.0120    -3.5170    -2.4300 h1         1 KOY       0.109700
     46 H18          5.0740    -3.8170    -0.6710 h1         1 KOY       0.050700
     47 H19          6.1910    -2.0480    -2.1390 ho         1 KOY       0.519000
     48 H20          4.7970    -1.9020     0.6970 h1         1 KOY       0.052700
     49 H21          6.3930    -0.4300     0.1950 ho         1 KOY       0.509000
     50 H22          4.0940     0.1510    -1.3780 h2         1 KOY       0.121700
     51 H23          0.2760     3.0180    -1.9160 h5         1 KOY       0.041100
     52 H24          0.1580     2.1340     3.2420 hn         1 KOY       0.504500
     53 H25         -0.7040     3.3980     2.4360 hn         1 KOY       0.504500
     54 H3          -2.8590     3.3410    -2.8220 ha         1 KOY       0.129000
     55 C5          -3.4040     0.9350    -1.6980 c          1 KOY       0.709600
     56 O4           1.0400    -2.8950    -0.4880 os         1 KOY      -0.323100
     57 C14         -3.2300    -1.2710     1.3020 c3         1 KOY      -0.029100
     58 H4          -2.9190     5.5900    -1.7720 ha         1 KOY       0.087000
     59 H9          -3.9780    -1.5170     2.0660 hc         1 KOY       0.069200
     60 O1          -2.4570     0.6440    -2.4120 o          1 KOY      -0.711000
     61 O2          -4.3920     0.2300    -1.5600 o          1 KOY      -0.711000
     62 H10         -3.7220    -1.4240     0.3350 hc         1 KOY       0.069200
@<TRIPOS>BOND
     1     1     2 ar  
     2     1     6 ar  
     3     1    30 1   
     4     2     3 ar  
     5     2    31 1   
     6     3     5 ar  
     7     3    33 1   
     8     4    30 1   
     9     4    31 2   
    10     4    34 1   
    11     5    32 ar  
    12     6    32 ar  
    13     7     8 ar  
    14     7    12 ar  
    15     7    55 1   
    16     8     9 ar  
    17     8    54 1   
    18     9    10 ar  
    19     9    58 1   
    20    10    11 ar  
    21    10    35 1   
    22    11    12 ar  
    23    11    36 1   
    24    12    13 1   
    25    13    14 2   
    26    13    15 1   
    27    15    37 1   
    28    15    38 1   
    29    15    57 1   
    30    16    17 ar  
    31    16    18 ar  
    32    16    57 1   
    33    17    21 ar  
    34    17    39 1   
    35    18    19 ar  
    36    18    40 1   
    37    19    20 ar  
    38    19    41 1   
    39    20    21 ar  
    40    20    42 1   
    41    21    56 1   
    42    22    23 1   
    43    22    43 1   
    44    22    44 1   
    45    22    56 1   
    46    23    24 1   
    47    23    25 1   
    48    23    45 1   
    49    24    29 1   
    50    25    26 1   
    51    25    27 1   
    52    25    46 1   
    53    26    47 1   
    54    27    28 1   
    55    27    29 1   
    56    27    48 1   
    57    28    49 1   
    58    29    30 1   
    59    29    50 1   
    60    32    51 1   
    61    33    52 1   
    62    33    53 1   
    63    55    60 1   
    64    55    61 1   
    65    57    59 1   
    66    57    62 1   
@<TRIPOS>SUBSTRUCTURE
     1 KOY         1 TEMP              0 ****  ****    0 ROOT
