@<TRIPOS>MOLECULE
KOZ
   49    52     1     0     0
SMALL
No Charge or Current Charge


@<TRIPOS>ATOM
      1 N1         -16.2570     7.9290    -1.2570 na         1 KOZ       0.125800
      2 N3         -15.4720     7.4270    -2.2550 nc         1 KOZ      -0.186800
      3 C4         -22.3730     8.7500    -2.5890 ca         1 KOZ      -0.098000
      4 C5         -23.0890     9.3340    -1.5230 ca         1 KOZ      -0.074000
      5 C6         -24.4790     9.1440    -1.4170 ca         1 KOZ      -0.111000
      6 C7         -25.1610     8.3740    -2.3760 ca         1 KOZ      -0.081000
      7 C8         -24.4510     7.7980    -3.4420 ca         1 KOZ       0.118000
      8 C10        -18.3990     9.2570    -0.9440 c6         1 KOZ       0.142300
      9 C13        -14.2060     8.2380    -0.6630 cd         1 KOZ       0.231500
     10 C15        -11.6950     8.3160    -0.5330 ca         1 KOZ      -0.131000
     11 C17        -10.5610     9.2830     1.3970 ca         1 KOZ       0.089000
     12 C20        -18.3130     6.7420    -0.4180 c6         1 KOZ       0.132300
     13 C1         -20.5720     5.6230     0.2660 c3         1 KOZ       0.169600
     14 C11        -17.7400     7.8880    -1.3090 c6         1 KOZ       0.089300
     15 C12        -15.4880     8.4440    -0.2380 cc         1 KOZ      -0.159000
     16 C14        -12.9560     8.5970     0.0430 ca         1 KOZ      -0.055500
     17 C16        -10.5090     8.6570     0.1400 ca         1 KOZ       0.157000
     18 C18        -11.8090     9.5650     1.9770 ca         1 KOZ       0.157000
     19 C19        -12.9970     9.2260     1.3080 ca         1 KOZ      -0.131000
     20 C2         -19.8690     6.7280    -0.5900 c6         1 KOZ       0.136300
     21 C3         -19.9620     9.1340    -1.0340 c6         1 KOZ       0.285300
     22 C9         -23.0630     7.9880    -3.5500 ca         1 KOZ      -0.044000
     23 F1          -9.3160     8.3780    -0.4330 f          1 KOZ      -0.158500
     24 F3         -11.8760    10.1670     3.1870 f          1 KOZ      -0.158500
     25 N2         -14.2320     7.6170    -1.8950 nd         1 KOZ      -0.343000
     26 O1         -21.9970     5.5680     0.0570 oh         1 KOZ      -0.712000
     27 O2         -20.4230     8.0220    -0.2260 os         1 KOZ      -0.413000
     28 O3         -17.8900    10.3200    -1.7880 oh         1 KOZ      -0.693000
     29 O4         -17.9330     6.9400     0.9660 oh         1 KOZ      -0.721000
     30 S1         -20.6010     8.9640    -2.7780 ss         1 KOZ      -0.244000
     31 Cl1        -25.3030     6.8390    -4.6470 cl         1 KOZ      -0.208000
     32 H51        -22.5850     9.9390    -0.7760 ha         1 KOZ       0.121000
     33 H61        -25.0280     9.5940    -0.5930 ha         1 KOZ       0.121000
     34 H71        -26.2350     8.2260    -2.2950 ha         1 KOZ       0.132000
     35 H101       -18.1550     9.4780     0.1060 h1         1 KOZ       0.066700
     36 H151       -11.6250     7.8330    -1.5040 ha         1 KOZ       0.148000
     37 H201       -17.9110     5.7860    -0.7880 h1         1 KOZ       0.064700
     38 H11        -20.1200     4.6550     0.0120 h1         1 KOZ       0.035700
     39 H12        -20.3590     5.8160     1.3260 h1         1 KOZ       0.035700
     40 H111       -18.0090     7.6640    -2.3500 h1         1 KOZ       0.121700
     41 H121       -15.8960     8.8820     0.6610 h4         1 KOZ       0.177000
     42 H191       -13.9460     9.4580     1.7830 ha         1 KOZ       0.148000
     43 H21        -20.1090     6.5120    -1.6410 h1         1 KOZ       0.081700
     44 H31        -20.4000    10.0620    -0.6420 h2         1 KOZ       0.097700
     45 H91        -22.5230     7.5390    -4.3800 ha         1 KOZ       0.142000
     46 H13        -22.3580     4.9150     0.7010 ho         1 KOZ       0.510000
     47 H32        -18.1330    11.1800    -1.3720 ho         1 KOZ       0.517000
     48 H41        -17.8880     6.0540     1.3970 ho         1 KOZ       0.515000
     49 F2          -9.4160     9.6110     2.0440 f          1 KOZ      -0.144000
@<TRIPOS>BOND
     1     1     2 1   
     2     1    14 1   
     3     1    15 1   
     4     2    25 2   
     5     3     4 ar  
     6     3    22 ar  
     7     3    30 1   
     8     4     5 ar  
     9     4    32 1   
    10     5     6 ar  
    11     5    33 1   
    12     6     7 ar  
    13     6    34 1   
    14     7    22 ar  
    15     7    31 1   
    16     8    14 1   
    17     8    21 1   
    18     8    28 1   
    19     8    35 1   
    20     9    15 2   
    21     9    16 1   
    22     9    25 1   
    23    10    16 ar  
    24    10    17 ar  
    25    10    36 1   
    26    11    17 ar  
    27    11    18 ar  
    28    11    49 1   
    29    12    14 1   
    30    12    20 1   
    31    12    29 1   
    32    12    37 1   
    33    13    20 1   
    34    13    26 1   
    35    13    38 1   
    36    13    39 1   
    37    14    40 1   
    38    15    41 1   
    39    16    19 ar  
    40    17    23 1   
    41    18    19 ar  
    42    18    24 1   
    43    19    42 1   
    44    20    27 1   
    45    20    43 1   
    46    21    27 1   
    47    21    30 1   
    48    21    44 1   
    49    22    45 1   
    50    26    46 1   
    51    28    47 1   
    52    29    48 1   
@<TRIPOS>SUBSTRUCTURE
     1 KOZ         1 TEMP              0 ****  ****    0 ROOT
