@<TRIPOS>MOLECULE
KOZ
   49    52     1     0     0
SMALL
abcg2


@<TRIPOS>ATOM
      1 N1         -16.3460     7.9340    -1.1500 na         1 KOZ       0.125800
      2 N3         -15.5850     7.6920    -2.2340 nc         1 KOZ      -0.186800
      3 C4         -22.2440     8.8390    -2.6190 ca         1 KOZ      -0.098000
      4 C5         -22.9820     9.9270    -2.1510 ca         1 KOZ      -0.074000
      5 C6         -24.3600     9.8230    -2.0170 ca         1 KOZ      -0.111000
      6 C7         -25.0190     8.6470    -2.3620 ca         1 KOZ      -0.081000
      7 C8         -24.2710     7.5800    -2.8360 ca         1 KOZ       0.118000
      8 C10        -18.4750     9.1450    -0.8910 c6         1 KOZ       0.142300
      9 C13        -14.2880     8.2740    -0.5890 cd         1 KOZ       0.231500
     10 C15        -11.8880     8.8700    -0.6790 ca         1 KOZ      -0.131000
     11 C17        -10.6250     9.2540     1.3410 ca         1 KOZ       0.089000
     12 C20        -18.3570     6.6730    -0.4210 c6         1 KOZ       0.132300
     13 C1         -20.5360     5.5650     0.2170 c3         1 KOZ       0.169600
     14 C11        -17.7940     7.8280    -1.2550 c6         1 KOZ       0.089300
     15 C12        -15.5810     8.3000    -0.1040 cc         1 KOZ      -0.159000
     16 C14        -13.0300     8.5990     0.0810 ca         1 KOZ      -0.055500
     17 C16        -10.7090     9.1930    -0.0420 ca         1 KOZ       0.157000
     18 C18        -11.7640     8.9800     2.0830 ca         1 KOZ       0.157000
     19 C19        -12.9600     8.6550     1.4760 ca         1 KOZ      -0.131000
     20 C2         -19.8720     6.6270    -0.6280 c6         1 KOZ       0.136300
     21 C3         -20.0020     8.9910    -1.0170 c6         1 KOZ       0.285300
     22 C9         -22.8910     7.6550    -2.9660 ca         1 KOZ      -0.044000
     23 F1          -9.6040     9.4690    -0.7580 f          1 KOZ      -0.158500
     24 F3         -11.6770     9.0320     3.4240 f          1 KOZ      -0.158500
     25 N2         -14.3460     7.8950    -1.8980 nd         1 KOZ      -0.343000
     26 O1         -21.8750     5.3860    -0.2400 oh         1 KOZ      -0.712000
     27 O2         -20.4660     7.8880    -0.2890 os         1 KOZ      -0.413000
     28 O3         -17.9530    10.1540    -1.7330 oh         1 KOZ      -0.693000
     29 O4         -18.0170     6.8810     0.9470 oh         1 KOZ      -0.721000
     30 S1         -20.4790     8.9550    -2.8180 ss         1 KOZ      -0.244000
     31 CL1        -25.0840     6.0890    -3.2680 cl         1 KOZ      -0.208000
     32 H51        -22.4780    10.8490    -1.8940 ha         1 KOZ       0.121000
     33 H61        -24.9320    10.6660    -1.6500 ha         1 KOZ       0.121000
     34 H71        -26.0930     8.5620    -2.2640 ha         1 KOZ       0.132000
     35 H101       -18.2750     9.3780     0.1580 h1         1 KOZ       0.066700
     36 H151       -11.9170     8.8410    -1.7590 ha         1 KOZ       0.148000
     37 H201       -17.9220     5.7390    -0.7840 h1         1 KOZ       0.064700
     38 H11        -19.9640     4.6360     0.1140 h1         1 KOZ       0.035700
     39 H12        -20.5180     5.8690     1.2670 h1         1 KOZ       0.035700
     40 H111       -17.9800     7.6110    -2.3070 h1         1 KOZ       0.121700
     41 H121       -15.9940     8.5500     0.8550 h4         1 KOZ       0.177000
     42 H191       -13.8160     8.4380     2.1000 ha         1 KOZ       0.148000
     43 H21        -20.0670     6.4130    -1.6840 h1         1 KOZ       0.081700
     44 H31        -20.4940     9.8600    -0.5840 h2         1 KOZ       0.097700
     45 H91        -22.3260     6.8040    -3.3190 ha         1 KOZ       0.142000
     46 H13        -22.3390     4.8270     0.3960 ho         1 KOZ       0.510000
     47 H32        -18.2500    11.0150    -1.4100 ho         1 KOZ       0.517000
     48 H41        -17.7760     6.0350     1.3430 ho         1 KOZ       0.515000
     49 F2          -9.4710     9.5700     1.9440 f          1 KOZ      -0.144000
@<TRIPOS>BOND
     1     1     2 1   
     2     1    14 1   
     3     1    15 1   
     4     2    25 2   
     5     3     4 ar  
     6     3    22 ar  
     7     3    30 1   
     8     4     5 ar  
     9     4    32 1   
    10     5     6 ar  
    11     5    33 1   
    12     6     7 ar  
    13     6    34 1   
    14     7    22 ar  
    15     7    31 1   
    16     8    14 1   
    17     8    21 1   
    18     8    28 1   
    19     8    35 1   
    20     9    15 2   
    21     9    16 1   
    22     9    25 1   
    23    10    16 ar  
    24    10    17 ar  
    25    10    36 1   
    26    11    17 ar  
    27    11    18 ar  
    28    11    49 1   
    29    12    14 1   
    30    12    20 1   
    31    12    29 1   
    32    12    37 1   
    33    13    20 1   
    34    13    26 1   
    35    13    38 1   
    36    13    39 1   
    37    14    40 1   
    38    15    41 1   
    39    16    19 ar  
    40    17    23 1   
    41    18    19 ar  
    42    18    24 1   
    43    19    42 1   
    44    20    27 1   
    45    20    43 1   
    46    21    27 1   
    47    21    30 1   
    48    21    44 1   
    49    22    45 1   
    50    26    46 1   
    51    28    47 1   
    52    29    48 1   
@<TRIPOS>SUBSTRUCTURE
     1 KOZ         1 TEMP              0 ****  ****    0 ROOT
