@<TRIPOS>MOLECULE
KP1
   25    24     1     0     0
SMALL
abcg2


@<TRIPOS>ATOM
      1 CAA          1.3940     1.1200     0.9870 c3         1 KP1      -0.117600
      2 CAH          1.3310     0.0450    -0.0960 c3         1 KP1       0.191000
      3 CAB          2.4310     0.3150    -1.1270 c3         1 KP1      -0.117600
      4 OAE          1.5370    -1.2420     0.4780 oh         1 KP1      -0.667000
      5 CAG         -0.0070    -0.0090    -0.8460 c3         1 KP1      -0.049400
      6 CAI         -1.3480    -0.0560    -0.0990 c3         1 KP1       0.191000
      7 CAC         -2.4440    -0.3420    -1.1310 c3         1 KP1      -0.117600
      8 CAD         -1.4140    -1.1180     0.9970 c3         1 KP1      -0.117600
      9 OAF         -1.5580     1.2370     0.4570 oh         1 KP1      -0.667000
     10 H1           0.6980     0.9250     1.8010 hc         1 KP1       0.040617
     11 H2           2.4020     1.1630     1.4090 hc         1 KP1       0.040617
     12 H3           1.1680     2.1060     0.5820 hc         1 KP1       0.040617
     13 H4           2.3130     1.2970    -1.5870 hc         1 KP1       0.040617
     14 H5           3.4170     0.2930    -0.6560 hc         1 KP1       0.040617
     15 H6           2.4210    -0.4330    -1.9230 hc         1 KP1       0.040617
     16 H7           2.3700    -1.2220     0.9620 ho         1 KP1       0.438000
     17 H8          -0.0480     0.8580    -1.5130 hc         1 KP1       0.053700
     18 H9           0.0350    -0.8840    -1.5040 hc         1 KP1       0.053700
     19 H10         -3.4320    -0.3150    -0.6640 hc         1 KP1       0.040617
     20 H11         -2.4330     0.3950    -1.9370 hc         1 KP1       0.040617
     21 H12         -2.3230    -1.3300    -1.5770 hc         1 KP1       0.040617
     22 H13         -1.1830    -2.1080     0.6060 hc         1 KP1       0.040617
     23 H14         -0.7230    -0.9110     1.8120 hc         1 KP1       0.040617
     24 H15         -2.4240    -1.1580     1.4150 hc         1 KP1       0.040617
     25 H16         -2.3920     1.2220     0.9390 ho         1 KP1       0.438000
@<TRIPOS>BOND
     1     1     2 1   
     2     1    10 1   
     3     1    11 1   
     4     1    12 1   
     5     2     3 1   
     6     2     4 1   
     7     2     5 1   
     8     3    13 1   
     9     3    14 1   
    10     3    15 1   
    11     4    16 1   
    12     5     6 1   
    13     5    17 1   
    14     5    18 1   
    15     6     7 1   
    16     6     8 1   
    17     6     9 1   
    18     7    19 1   
    19     7    20 1   
    20     7    21 1   
    21     8    22 1   
    22     8    23 1   
    23     8    24 1   
    24     9    25 1   
@<TRIPOS>SUBSTRUCTURE
     1 KP1         1 TEMP              0 ****  ****    0 ROOT
