@<TRIPOS>MOLECULE
KP1
   25    24     1     0     0
SMALL
No Charge or Current Charge


@<TRIPOS>ATOM
      1 CAA          1.4190     1.1760     0.9660 c3         1 KP1      -0.117600
      2 CAH          1.3560     0.0580    -0.1020 c3         1 KP1       0.191000
      3 CAB          2.5070     0.2560    -1.1180 c3         1 KP1      -0.117600
      4 OAE          1.6050    -1.1910     0.5450 oh         1 KP1      -0.667000
      5 CAG         -0.0070    -0.0110    -0.8770 c3         1 KP1      -0.049400
      6 CAI         -1.3730    -0.0700    -0.1060 c3         1 KP1       0.191000
      7 CAC         -2.5210    -0.2820    -1.1230 c3         1 KP1      -0.117600
      8 CAD         -1.4390    -1.1740     0.9770 c3         1 KP1      -0.117600
      9 OAF         -1.6250     1.1870     0.5240 oh         1 KP1      -0.667000
     10 H1           0.7210     0.9840     1.7890 hc         1 KP1       0.040617
     11 H2           2.4240     1.2510     1.3990 hc         1 KP1       0.040617
     12 H3           1.1690     2.1480     0.5240 hc         1 KP1       0.040617
     13 H4           2.4000     1.2120    -1.6460 hc         1 KP1       0.040617
     14 H5           3.4840     0.2580    -0.6170 hc         1 KP1       0.040617
     15 H6           2.5130    -0.5450    -1.8670 hc         1 KP1       0.040617
     16 H7           2.4640    -1.1030     1.0110 ho         1 KP1       0.438000
     17 H8          -0.0510     0.8540    -1.5500 hc         1 KP1       0.053700
     18 H9           0.0390    -0.8850    -1.5390 hc         1 KP1       0.053700
     19 H10         -3.4990    -0.2770    -0.6260 hc         1 KP1       0.040617
     20 H11         -2.5240     0.5090    -1.8830 hc         1 KP1       0.040617
     21 H12         -2.4110    -1.2440    -1.6380 hc         1 KP1       0.040617
     22 H13         -1.1880    -2.1520     0.5480 hc         1 KP1       0.040617
     23 H14         -0.7450    -0.9720     1.8000 hc         1 KP1       0.040617
     24 H15         -2.4460    -1.2440     1.4070 hc         1 KP1       0.040617
     25 H16         -2.4850     1.1050     0.9880 ho         1 KP1       0.438000
@<TRIPOS>BOND
     1     1     2 1   
     2     1    10 1   
     3     1    11 1   
     4     1    12 1   
     5     2     3 1   
     6     2     4 1   
     7     2     5 1   
     8     3    13 1   
     9     3    14 1   
    10     3    15 1   
    11     4    16 1   
    12     5     6 1   
    13     5    17 1   
    14     5    18 1   
    15     6     7 1   
    16     6     8 1   
    17     6     9 1   
    18     7    19 1   
    19     7    20 1   
    20     7    21 1   
    21     8    22 1   
    22     8    23 1   
    23     8    24 1   
    24     9    25 1   
@<TRIPOS>SUBSTRUCTURE
     1 KP1         1 TEMP              0 ****  ****    0 ROOT
