@<TRIPOS>MOLECULE
KP2
   28    30     1     0     0
SMALL
No Charge or Current Charge


@<TRIPOS>ATOM
      1 C1          -2.7880    -0.8680    -0.8360 ca         1 KP2      -0.110500
      2 C2          -4.1040    -0.3720    -0.8520 ca         1 KP2      -0.111000
      3 C3          -4.4760     0.6640     0.0210 ca         1 KP2      -0.113000
      4 C4          -3.5320     1.2010     0.9130 ca         1 KP2      -0.111000
      5 C5          -2.2170     0.7040     0.9270 ca         1 KP2      -0.110500
      6 C6          -1.8330    -0.3270     0.0470 ca         1 KP2      -0.017800
      7 C7          -0.4700    -0.8510     0.0660 cc         1 KP2      -0.045400
      8 C8           0.7990    -0.1820     0.0540 ca         1 KP2      -0.285800
      9 C9           1.1720     1.1550    -0.1140 ca         1 KP2       0.461900
     10 N1           0.2860     2.1550    -0.3180 nv         1 KP2      -1.068900
     11 N2           2.4610     1.5140    -0.1190 nb         1 KP2      -0.354000
     12 C10          3.3370     0.5100     0.0420 ca         1 KP2       0.418900
     13 N3           4.6410     0.8620     0.0370 nv         1 KP2      -1.041900
     14 N4           3.0780    -0.8020     0.1870 nb         1 KP2      -0.302000
     15 C11          1.7750    -1.1390     0.1860 ca         1 KP2       0.189500
     16 N5           1.1840    -2.3910     0.2800 na         1 KP2      -0.321400
     17 C12         -0.2200    -2.2050     0.2000 cd         1 KP2      -0.174100
     18 H1          -2.5070    -1.6680    -1.5170 ha         1 KP2       0.118500
     19 H2          -4.8350    -0.7910    -1.5410 ha         1 KP2       0.112500
     20 H3          -5.4940     1.0470     0.0090 ha         1 KP2       0.113000
     21 H4          -3.8200     1.9970     1.5950 ha         1 KP2       0.112500
     22 H5          -1.4960     1.1130     1.6320 ha         1 KP2       0.118500
     23 H6          -0.6690     1.8920    -0.5430 hn         1 KP2       0.494000
     24 H7           0.6290     3.0300    -0.7040 hn         1 KP2       0.494000
     25 H8           4.8840     1.7910    -0.2970 hn         1 KP2       0.479000
     26 H9           5.3390     0.1330    -0.0800 hn         1 KP2       0.479000
     27 H10          1.6770    -3.2710     0.3900 hn         1 KP2       0.360000
     28 H11         -0.9250    -3.0310     0.2700 h4         1 KP2       0.218000
@<TRIPOS>BOND
     1     1     2 ar  
     2     1     6 ar  
     3     1    18 1   
     4     2     3 ar  
     5     2    19 1   
     6     3     4 ar  
     7     3    20 1   
     8     4     5 ar  
     9     4    21 1   
    10     5     6 ar  
    11     5    22 1   
    12     6     7 1   
    13     7     8 1   
    14     7    17 2   
    15     8     9 ar  
    16     8    15 ar  
    17     9    10 1   
    18     9    11 ar  
    19    10    23 1   
    20    10    24 1   
    21    11    12 ar  
    22    12    13 1   
    23    12    14 ar  
    24    13    25 1   
    25    13    26 1   
    26    14    15 ar  
    27    15    16 1   
    28    16    17 1   
    29    16    27 1   
    30    17    28 1   
@<TRIPOS>SUBSTRUCTURE
     1 KP2         1 TEMP              0 ****  ****    0 ROOT
