@<TRIPOS>MOLECULE
KP2
   28    30     1     0     0
SMALL
abcg2


@<TRIPOS>ATOM
      1 C1          -2.8450    -0.9130    -0.7820 ca         1 KP2      -0.110500
      2 C2          -4.1510    -0.4450    -0.7840 ca         1 KP2      -0.111000
      3 C3          -4.5160     0.6190     0.0320 ca         1 KP2      -0.113000
      4 C4          -3.5640     1.2030     0.8580 ca         1 KP2      -0.111000
      5 C5          -2.2610     0.7270     0.8690 ca         1 KP2      -0.110500
      6 C6          -1.8780    -0.3340     0.0450 ca         1 KP2      -0.017800
      7 C7          -0.5070    -0.8550     0.0690 cc         1 KP2      -0.045400
      8 C8           0.7410    -0.1380     0.0460 ca         1 KP2      -0.285800
      9 C9           1.1900     1.1880    -0.1360 ca         1 KP2       0.461900
     10 N1           0.3530     2.2250    -0.3200 nv         1 KP2      -1.068900
     11 N2           2.4920     1.4550    -0.1170 nb         1 KP2      -0.354000
     12 C10          3.3630     0.4480     0.0400 ca         1 KP2       0.418900
     13 N3           4.6740     0.8030     0.1180 nv         1 KP2      -1.041900
     14 N4           3.0770    -0.8430     0.1500 nb         1 KP2      -0.302000
     15 C11          1.7670    -1.0850     0.1440 ca         1 KP2       0.189500
     16 N5           1.1920    -2.3080     0.2150 na         1 KP2      -0.321400
     17 C12         -0.1740    -2.1760     0.1690 cd         1 KP2      -0.174100
     18 H1          -2.5660    -1.7280    -1.4380 ha         1 KP2       0.118500
     19 H2          -4.8820    -0.9050    -1.4350 ha         1 KP2       0.112500
     20 H3          -5.5320     0.9890     0.0230 ha         1 KP2       0.113000
     21 H4          -3.8380     2.0270     1.5040 ha         1 KP2       0.112500
     22 H5          -1.5390     1.1710     1.5440 ha         1 KP2       0.118500
     23 H6          -0.6130     2.0680    -0.5450 hn         1 KP2       0.494000
     24 H7           0.7440     3.1100    -0.5950 hn         1 KP2       0.494000
     25 H8           4.9220     1.7070    -0.2470 hn         1 KP2       0.479000
     26 H9           5.3510     0.0780    -0.0500 hn         1 KP2       0.479000
     27 H10          1.6890    -3.1790     0.3100 hn         1 KP2       0.360000
     28 H11         -0.8150    -3.0390     0.2450 h4         1 KP2       0.218000
@<TRIPOS>BOND
     1     1     2 ar  
     2     1     6 ar  
     3     1    18 1   
     4     2     3 ar  
     5     2    19 1   
     6     3     4 ar  
     7     3    20 1   
     8     4     5 ar  
     9     4    21 1   
    10     5     6 ar  
    11     5    22 1   
    12     6     7 1   
    13     7     8 1   
    14     7    17 2   
    15     8     9 ar  
    16     8    15 ar  
    17     9    10 1   
    18     9    11 ar  
    19    10    23 1   
    20    10    24 1   
    21    11    12 ar  
    22    12    13 1   
    23    12    14 ar  
    24    13    25 1   
    25    13    26 1   
    26    14    15 ar  
    27    15    16 1   
    28    16    17 1   
    29    16    27 1   
    30    17    28 1   
@<TRIPOS>SUBSTRUCTURE
     1 KP2         1 TEMP              0 ****  ****    0 ROOT
