@<TRIPOS>MOLECULE
KP3
   76    81     1     0     0
SMALL
bcc


@<TRIPOS>ATOM
      1 O2           7.8400     2.5650     3.1880 o          1 KP3      -0.545500
      2 C7           8.4600     2.2320     2.2130 c          1 KP3       0.760200
      3 C6           8.1600     1.2400     1.1820 ca         1 KP3      -0.243600
      4 C1           7.0530     0.4130     1.0280 ca         1 KP3       0.233100
      5 O3           6.0850     0.4720     1.9490 oh         1 KP3      -0.468100
      6 O1           9.6460     2.7940     1.9110 os         1 KP3      -0.407900
      7 C9          10.2020     2.2460     0.7160 c5         1 KP3       0.177700
      8 C5           9.1980     1.2320     0.2680 ca         1 KP3      -0.056300
      9 C4           9.2100     0.4080    -0.8380 ca         1 KP3      -0.114300
     10 C12         10.3230     0.4210    -1.8430 c3         1 KP3      -0.036800
     11 C3           8.0990    -0.4360    -0.9720 ca         1 KP3       0.175100
     12 O4           8.0580    -1.2660    -2.0470 os         1 KP3      -0.343900
     13 C14          8.6770    -2.5320    -1.8390 c3         1 KP3       0.127700
     14 C2           7.0210    -0.4510    -0.0740 ca         1 KP3      -0.201300
     15 C15          5.8420    -1.3710    -0.2770 c3         1 KP3      -0.001900
     16 C16          4.5450    -0.6200    -0.3920 c2         1 KP3      -0.149200
     17 C17          3.3970    -0.8880     0.2360 c2         1 KP3      -0.142400
     18 C18          3.1650    -2.0120     1.1980 c3         1 KP3      -0.062900
     19 C19          2.2030    -0.0110    -0.0290 c3         1 KP3       0.091500
     20 N1           1.0940    -0.7760    -0.5770 na         1 KP3       0.100400
     21 C24         -0.1110    -1.0140    -0.0310 cc         1 KP3      -0.212600
     22 C23         -0.7470    -1.7940    -0.9630 cd         1 KP3       0.258600
     23 N3           0.1000    -1.9770    -1.9960 nd         1 KP3      -0.359000
     24 N2           1.2080    -1.3640    -1.7510 nc         1 KP3      -0.199800
     25 C25         -2.1090    -2.3910    -0.9190 c3         1 KP3       0.122100
     26 O5          -2.8930    -1.6210    -0.0480 os         1 KP3      -0.400600
     27 C27         -4.1820    -2.1430     0.1370 c3         1 KP3       0.139400
     28 C28         -4.9070    -1.3090     1.1620 c5         1 KP3       0.139100
     29 C32         -6.3170    -1.8090     1.4630 c5         1 KP3       0.067100
     30 O7          -6.2770    -2.8140     2.4340 oh         1 KP3      -0.584800
     31 C31         -7.0050    -0.5190     1.9280 c5         1 KP3       0.078100
     32 O8          -6.6390    -0.1990     3.2410 oh         1 KP3      -0.577800
     33 C30         -6.3530     0.5090     1.0060 c5         1 KP3       0.266800
     34 O6          -5.0840     0.0250     0.6880 os         1 KP3      -0.381600
     35 N4          -7.1160     0.6920    -0.2240 na         1 KP3      -0.281000
     36 C39         -8.2610     1.4260    -0.3280 ca         1 KP3       0.448800
     37 N6          -8.8920     2.1010     0.6310 nb         1 KP3      -0.747000
     38 C41         -9.9730     2.7050     0.1680 ca         1 KP3       0.707900
     39 N7         -10.4570     2.6990    -1.0710 nb         1 KP3      -0.828000
     40 C43         -9.8120     2.0130    -2.0220 ca         1 KP3       0.777200
     41 N8         -10.2900     2.0170    -3.2680 nv         1 KP3      -0.950500
     42 C38         -8.6390     1.3260    -1.6570 ca         1 KP3      -0.229200
     43 N5          -7.7500     0.5550    -2.3580 nc         1 KP3      -0.556100
     44 C36         -6.8630     0.2000    -1.4740 cd         1 KP3       0.413700
     45 H1           5.2780     0.0360     1.6410 ho         1 KP3       0.440000
     46 H2          10.3450     3.0470    -0.0110 h1         1 KP3       0.076200
     47 H3          11.1750     1.8080     0.9440 h1         1 KP3       0.076200
     48 H4          10.9750    -0.4480    -1.7450 hc         1 KP3       0.047367
     49 H5           9.9410     0.4250    -2.8630 hc         1 KP3       0.047367
     50 H6          10.9500     1.3040    -1.7250 hc         1 KP3       0.047367
     51 H7           9.7330    -2.4290    -1.5810 h1         1 KP3       0.040700
     52 H8           8.1790    -3.0960    -1.0460 h1         1 KP3       0.040700
     53 H9           8.5940    -3.0850    -2.7720 h1         1 KP3       0.040700
     54 H10          5.9760    -1.9360    -1.2000 hc         1 KP3       0.071200
     55 H11          5.8040    -2.1160     0.5210 hc         1 KP3       0.071200
     56 H12          4.5640     0.2150    -1.0870 ha         1 KP3       0.138000
     57 H13          2.6180    -1.6650     2.0770 hc         1 KP3       0.049700
     58 H14          2.5610    -2.7980     0.7390 hc         1 KP3       0.049700
     59 H15          4.0870    -2.4770     1.5420 hc         1 KP3       0.049700
     60 H16          1.8430     0.4370     0.8980 h1         1 KP3       0.073700
     61 H17          2.4430     0.7960    -0.7190 h1         1 KP3       0.073700
     62 H18         -0.4050    -0.6230     0.9280 h4         1 KP3       0.194000
     63 H19         -2.5330    -2.4210    -1.9320 h1         1 KP3       0.041200
     64 H20         -2.0540    -3.4330    -0.5730 h1         1 KP3       0.041200
     65 H21         -4.7430    -2.1610    -0.8090 h1         1 KP3       0.033200
     66 H22         -4.1430    -3.1780     0.5040 h1         1 KP3       0.033200
     67 H23         -4.3190    -1.2900     2.0880 h1         1 KP3       0.091700
     68 H24         -6.7970    -2.1610     0.5390 h1         1 KP3       0.056700
     69 H25         -7.1090    -3.2970     2.4190 ho         1 KP3       0.420000
     70 H26         -8.0940    -0.5530     1.8020 h1         1 KP3       0.078700
     71 H27         -6.6380    -1.0160     3.7560 ho         1 KP3       0.425000
     72 H28         -6.2840     1.4890     1.4880 h2         1 KP3       0.127700
     73 H29        -10.5440     3.2810     0.8880 h5         1 KP3       0.047100
     74 H30        -11.1720     2.4570    -3.4660 hn         1 KP3       0.449800
     75 H31         -9.8840     1.4340    -3.9780 hn         1 KP3       0.449800
     76 H32         -5.9980    -0.4090    -1.6860 h5         1 KP3       0.073800
@<TRIPOS>BOND
     1     1     2 2   
     2     2     3 1   
     3     2     6 1   
     4     3     4 ar  
     5     3     8 ar  
     6     4     5 1   
     7     4    14 ar  
     8     5    45 1   
     9     6     7 1   
    10     7     8 1   
    11     7    46 1   
    12     7    47 1   
    13     8     9 ar  
    14     9    10 1   
    15     9    11 ar  
    16    10    48 1   
    17    10    49 1   
    18    10    50 1   
    19    11    12 1   
    20    11    14 ar  
    21    12    13 1   
    22    13    51 1   
    23    13    52 1   
    24    13    53 1   
    25    14    15 1   
    26    15    16 1   
    27    15    54 1   
    28    15    55 1   
    29    16    17 2   
    30    16    56 1   
    31    17    18 1   
    32    17    19 1   
    33    18    57 1   
    34    18    58 1   
    35    18    59 1   
    36    19    20 1   
    37    19    60 1   
    38    19    61 1   
    39    20    21 1   
    40    20    24 1   
    41    21    22 2   
    42    21    62 1   
    43    22    23 1   
    44    22    25 1   
    45    23    24 2   
    46    25    26 1   
    47    25    63 1   
    48    25    64 1   
    49    26    27 1   
    50    27    28 1   
    51    27    65 1   
    52    27    66 1   
    53    28    29 1   
    54    28    34 1   
    55    28    67 1   
    56    29    30 1   
    57    29    31 1   
    58    29    68 1   
    59    30    69 1   
    60    31    32 1   
    61    31    33 1   
    62    31    70 1   
    63    32    71 1   
    64    33    34 1   
    65    33    35 1   
    66    33    72 1   
    67    35    36 1   
    68    35    44 1   
    69    36    37 ar  
    70    36    42 ar  
    71    37    38 ar  
    72    38    39 ar  
    73    38    73 1   
    74    39    40 ar  
    75    40    41 1   
    76    40    42 ar  
    77    41    74 1   
    78    41    75 1   
    79    42    43 1   
    80    43    44 2   
    81    44    76 1   
@<TRIPOS>SUBSTRUCTURE
     1 KP3         1 TEMP              0 ****  ****    0 ROOT
