@<TRIPOS>MOLECULE
KP3
   76    81     1     0     0
SMALL
No Charge or Current Charge


@<TRIPOS>ATOM
      1 O2           7.6250     2.9080     2.8830 o          1 KP3      -0.470000
      2 C7           8.4200     2.4540     2.0730 c          1 KP3       0.684700
      3 C6           8.1990     1.3210     1.1450 ca         1 KP3      -0.243600
      4 C1           7.0680     0.5190     0.9650 ca         1 KP3       0.233100
      5 O3           5.9450     0.7380     1.7000 oh         1 KP3      -0.507100
      6 O1           9.6980     2.9380     1.8810 os         1 KP3      -0.431100
      7 C9          10.3690     2.1650     0.8330 c5         1 KP3       0.200900
      8 C5           9.3410     1.1420     0.4090 ca         1 KP3      -0.056300
      9 C4           9.4310     0.1320    -0.5630 ca         1 KP3      -0.114300
     10 C12         10.7110    -0.0390    -1.3800 c3         1 KP3      -0.036800
     11 C3           8.3040    -0.7100    -0.7480 ca         1 KP3       0.175100
     12 O4           8.3670    -1.7250    -1.6730 os         1 KP3      -0.367100
     13 C14          8.9830    -2.9680    -1.3010 c3         1 KP3       0.150900
     14 C2           7.1100    -0.5180     0.0040 ca         1 KP3      -0.201300
     15 C15          5.8910    -1.4330    -0.1940 c3         1 KP3      -0.001900
     16 C16          4.6550    -0.6540    -0.6180 c2         1 KP3      -0.199200
     17 C17          3.4470    -0.5870    -0.0180 c2         1 KP3      -0.142400
     18 C18          3.0440    -1.2880     1.2760 c3         1 KP3      -0.062900
     19 C19          2.3150     0.2570    -0.5990 c3         1 KP3       0.120800
     20 N1           1.2070    -0.5460    -1.1450 na         1 KP3       0.121800
     21 C24          0.0380    -0.8920    -0.5160 cc         1 KP3      -0.180000
     22 C23         -0.6260    -1.6270    -1.4580 cd         1 KP3       0.193300
     23 N3           0.1470    -1.7030    -2.6010 nd         1 KP3      -0.359000
     24 N2           1.2600    -1.0460    -2.4130 nc         1 KP3      -0.199800
     25 C25         -1.9800    -2.2940    -1.3450 c3         1 KP3       0.145300
     26 O5          -2.7930    -1.5930    -0.3840 os         1 KP3      -0.447000
     27 C27         -4.1120    -2.1450    -0.2010 c3         1 KP3       0.162600
     28 C28         -4.8700    -1.2920     0.8460 c5         1 KP3       0.162300
     29 C32         -6.2560    -1.8640     1.2690 c5         1 KP3       0.090300
     30 O7          -6.1690    -2.9630     2.1950 oh         1 KP3      -0.707000
     31 C31         -6.8590    -0.6010     1.9430 c5         1 KP3       0.101300
     32 O8          -6.2910    -0.4260     3.2530 oh         1 KP3      -0.700000
     33 C30         -6.4170     0.4960     0.9080 c5         1 KP3       0.319300
     34 O6          -5.1820     0.0200     0.3130 os         1 KP3      -0.428000
     35 N4          -7.3830     0.7550    -0.1600 na         1 KP3      -0.310300
     36 C39         -8.5920     1.3940    -0.0680 ca         1 KP3       0.120500
     37 N6          -9.2150     1.9470     0.9910 nb         1 KP3      -0.221000
     38 C41        -10.4250     2.5020     0.7430 ca         1 KP3       0.181900
     39 N7         -11.0610     2.5560    -0.4520 nb         1 KP3      -0.302000
     40 C43        -10.4130     2.0000    -1.4860 ca         1 KP3       0.448900
     41 N8         -11.0510     2.0490    -2.6870 nv         1 KP3      -1.060900
     42 C38         -9.1480     1.3950    -1.3220 ca         1 KP3      -0.098600
     43 N5          -8.3390     0.7680    -2.2630 nc         1 KP3      -0.556100
     44 C36         -7.2790     0.3990    -1.5190 cd         1 KP3       0.413700
     45 H1           5.2300     0.2080     1.2890 ho         1 KP3       0.479000
     46 H2          10.6490     2.8310     0.0060 h1         1 KP3       0.076200
     47 H3          11.2720     1.6930     1.2410 h1         1 KP3       0.076200
     48 H4          11.4060    -0.7230    -0.8790 hc         1 KP3       0.047367
     49 H5          10.5060    -0.4420    -2.3790 hc         1 KP3       0.047367
     50 H6          11.2300     0.9150    -1.5260 hc         1 KP3       0.047367
     51 H7          10.0320    -2.8180    -1.0180 h1         1 KP3       0.040700
     52 H8           8.4580    -3.4210    -0.4510 h1         1 KP3       0.040700
     53 H9           8.9530    -3.6750    -2.1400 h1         1 KP3       0.040700
     54 H10          6.0820    -2.1940    -0.9580 hc         1 KP3       0.071200
     55 H11          5.7280    -2.0100     0.7220 hc         1 KP3       0.071200
     56 H12          4.8170    -0.1040    -1.5480 ha         1 KP3       0.188000
     57 H13          2.6710    -0.5670     2.0130 hc         1 KP3       0.049700
     58 H14          2.2440    -2.0160     1.0950 hc         1 KP3       0.049700
     59 H15          3.8620    -1.8340     1.7540 hc         1 KP3       0.049700
     60 H16          1.9090     0.9170     0.1770 h1         1 KP3       0.073700
     61 H17          2.6960     0.9030    -1.4000 h1         1 KP3       0.073700
     62 H18         -0.2200    -0.6060     0.4940 h4         1 KP3       0.176000
     63 H19         -2.4620    -2.2910    -2.3320 h1         1 KP3       0.041200
     64 H20         -1.8330    -3.3380    -1.0400 h1         1 KP3       0.041200
     65 H21         -4.6730    -2.1460    -1.1450 h1         1 KP3       0.033200
     66 H22         -4.0450    -3.1790     0.1620 h1         1 KP3       0.033200
     67 H23         -4.2210    -1.1680     1.7240 h1         1 KP3       0.091700
     68 H24         -6.8380    -2.1480     0.3790 h1         1 KP3       0.056700
     69 H25         -6.9420    -3.5560     2.0300 ho         1 KP3       0.519000
     70 H26         -7.9550    -0.6660     2.0050 h1         1 KP3       0.078700
     71 H27         -6.0650    -1.3470     3.5380 ho         1 KP3       0.524000
     72 H28         -6.2570     1.4570     1.4140 h2         1 KP3       0.127700
     73 H29        -10.9400     2.9510     1.5910 h5         1 KP3       0.047100
     74 H30        -12.0530     2.2200    -2.6870 hn         1 KP3       0.505000
     75 H31        -10.6880     1.4530    -3.4260 hn         1 KP3       0.505000
     76 H32         -6.4100    -0.1290    -1.8950 h5         1 KP3       0.073800
@<TRIPOS>BOND
     1     1     2 2   
     2     2     3 1   
     3     2     6 1   
     4     3     4 ar  
     5     3     8 ar  
     6     4     5 1   
     7     4    14 ar  
     8     5    45 1   
     9     6     7 1   
    10     7     8 1   
    11     7    46 1   
    12     7    47 1   
    13     8     9 ar  
    14     9    10 1   
    15     9    11 ar  
    16    10    48 1   
    17    10    49 1   
    18    10    50 1   
    19    11    12 1   
    20    11    14 ar  
    21    12    13 1   
    22    13    51 1   
    23    13    52 1   
    24    13    53 1   
    25    14    15 1   
    26    15    16 1   
    27    15    54 1   
    28    15    55 1   
    29    16    17 2   
    30    16    56 1   
    31    17    18 1   
    32    17    19 1   
    33    18    57 1   
    34    18    58 1   
    35    18    59 1   
    36    19    20 1   
    37    19    60 1   
    38    19    61 1   
    39    20    21 1   
    40    20    24 1   
    41    21    22 2   
    42    21    62 1   
    43    22    23 1   
    44    22    25 1   
    45    23    24 2   
    46    25    26 1   
    47    25    63 1   
    48    25    64 1   
    49    26    27 1   
    50    27    28 1   
    51    27    65 1   
    52    27    66 1   
    53    28    29 1   
    54    28    34 1   
    55    28    67 1   
    56    29    30 1   
    57    29    31 1   
    58    29    68 1   
    59    30    69 1   
    60    31    32 1   
    61    31    33 1   
    62    31    70 1   
    63    32    71 1   
    64    33    34 1   
    65    33    35 1   
    66    33    72 1   
    67    35    36 1   
    68    35    44 1   
    69    36    37 ar  
    70    36    42 ar  
    71    37    38 ar  
    72    38    39 ar  
    73    38    73 1   
    74    39    40 ar  
    75    40    41 1   
    76    40    42 ar  
    77    41    74 1   
    78    41    75 1   
    79    42    43 1   
    80    43    44 2   
    81    44    76 1   
@<TRIPOS>SUBSTRUCTURE
     1 KP3         1 TEMP              0 ****  ****    0 ROOT
