@<TRIPOS>MOLECULE
KP5
   60    63     1     0     0
SMALL
abcg2


@<TRIPOS>ATOM
      1 C10        -20.2960     4.8480    -0.2010 c3         1 KP5       0.170600
      2 C17        -14.7740     8.7370    -1.1610 cc         1 KP5       0.246500
      3 C20        -11.2160     9.9660    -0.9640 ca         1 KP5      -0.127000
      4 C21        -10.9520     9.8650     0.4000 ca         1 KP5      -0.084000
      5 C22        -11.9370     9.3930     1.2600 ca         1 KP5      -0.149000
      6 C02        -23.7340    10.5810    -4.0590 c3         1 KP5       0.174600
      7 C03        -24.0800    10.0500    -2.6870 c6         1 KP5       0.167300
      8 C05        -23.0650     9.5560    -0.5910 c6         1 KP5       0.297300
      9 C07        -20.5220     8.4790    -0.6800 c6         1 KP5       0.252300
     10 C09        -19.9670     6.1830    -0.8280 c6         1 KP5       0.149300
     11 C12        -18.4650     6.4630    -0.8560 c6         1 KP5       0.133300
     12 C14        -18.2480     7.8540    -1.4710 c6         1 KP5       0.075300
     13 C16        -15.9810     8.4940    -0.5330 cd         1 KP5      -0.163000
     14 C18        -13.4720     9.1200    -0.6210 ca         1 KP5      -0.132500
     15 C19        -12.4580     9.5990    -1.4620 ca         1 KP5      -0.062000
     16 C23        -13.1630     9.0340     0.7360 ca         1 KP5       0.164000
     17 C27        -19.0560     8.9330    -0.7530 c6         1 KP5       0.150300
     18 C29        -24.1750    10.2420     0.2040 c6         1 KP5       0.134300
     19 C31        -25.4600    10.1930    -0.6220 c6         1 KP5       0.093300
     20 C33        -25.2460    10.7700    -2.0130 c6         1 KP5       0.148300
     21 F24        -14.1050     8.5640     1.5960 f          1 KP5      -0.191000
     22 N15        -16.8370     8.2040    -1.5330 na         1 KP5       0.121800
     23 N25        -14.9730     8.5750    -2.5030 nc         1 KP5      -0.353000
     24 N26        -16.2140     8.2570    -2.7230 nd         1 KP5      -0.197800
     25 O01        -23.4660    11.9800    -3.9850 oh         1 KP5      -0.716000
     26 O04        -22.9190    10.1770    -1.8550 os         1 KP5      -0.441000
     27 O08        -20.6380     7.2030    -0.0780 os         1 KP5      -0.414000
     28 O11        -21.6650     4.5460    -0.4660 oh         1 KP5      -0.721000
     29 O13        -17.9350     6.4040     0.4650 oh         1 KP5      -0.709000
     30 O28        -18.9240    10.1210    -1.5130 oh         1 KP5      -0.709000
     31 O30        -24.3350     9.5640     1.4410 oh         1 KP5      -0.706000
     32 O32        -26.5040    10.9430     0.0020 oh         1 KP5      -0.669000
     33 O34        -26.4100    10.6040    -2.8130 oh         1 KP5      -0.721000
     34 S06        -21.4810     9.6760     0.2880 ss         1 KP5      -0.314000
     35 H101       -19.6380     4.0880    -0.6380 h1         1 KP5       0.041700
     36 H102       -20.1050     4.8940     0.8730 h1         1 KP5       0.041700
     37 H201       -10.4560    10.3350    -1.6390 ha         1 KP5       0.120000
     38 H211        -9.9870    10.1520     0.7950 ha         1 KP5       0.118000
     39 H221       -11.7660     9.2990     2.3240 ha         1 KP5       0.131000
     40 H022       -24.5770    10.3780    -4.7270 h1         1 KP5       0.039700
     41 H021       -22.8600    10.0360    -4.4290 h1         1 KP5       0.039700
     42 H031       -24.3350     8.9870    -2.7990 h1         1 KP5       0.049700
     43 H051       -23.3030     8.4940    -0.7120 h2         1 KP5       0.077700
     44 H071       -20.9340     8.4660    -1.6950 h2         1 KP5       0.074700
     45 H091       -20.3380     6.1920    -1.8610 h1         1 KP5       0.059700
     46 H121       -17.9770     5.7250    -1.4960 h1         1 KP5       0.059700
     47 H141       -18.5790     7.8230    -2.5100 h1         1 KP5       0.105700
     48 H161       -16.2800     8.5170     0.4960 h4         1 KP5       0.185000
     49 H191       -12.6640     9.6820    -2.5200 ha         1 KP5       0.138000
     50 H271       -18.6750     9.0710     0.2640 h1         1 KP5       0.072700
     51 H291       -23.8980    11.2900     0.3700 h1         1 KP5       0.071700
     52 H311       -25.7650     9.1460    -0.7200 h1         1 KP5       0.053700
     53 H331       -24.9960    11.8320    -1.9230 h1         1 KP5       0.082700
     54 H011       -23.1860    12.2780    -4.8590 ho         1 KP5       0.505000
     55 H111       -21.9620     3.8950     0.1810 ho         1 KP5       0.510000
     56 H131       -17.1470     5.8510     0.4640 ho         1 KP5       0.513000
     57 H281       -19.4050    10.8260    -1.0590 ho         1 KP5       0.530000
     58 H301       -24.9380    10.0790     1.9920 ho         1 KP5       0.511000
     59 H321       -27.0150    10.3570     0.5730 ho         1 KP5       0.451000
     60 H341       -27.1630    10.8880    -2.2760 ho         1 KP5       0.520000
@<TRIPOS>BOND
     1     1    10 1   
     2     1    28 1   
     3     1    35 1   
     4     1    36 1   
     5     2    13 2   
     6     2    14 1   
     7     2    23 1   
     8     3     4 ar  
     9     3    15 ar  
    10     3    37 1   
    11     4     5 ar  
    12     4    38 1   
    13     5    16 ar  
    14     5    39 1   
    15     6     7 1   
    16     6    25 1   
    17     6    40 1   
    18     6    41 1   
    19     7    20 1   
    20     7    26 1   
    21     7    42 1   
    22     8    18 1   
    23     8    26 1   
    24     8    34 1   
    25     8    43 1   
    26     9    17 1   
    27     9    27 1   
    28     9    34 1   
    29     9    44 1   
    30    10    11 1   
    31    10    27 1   
    32    10    45 1   
    33    11    12 1   
    34    11    29 1   
    35    11    46 1   
    36    12    17 1   
    37    12    22 1   
    38    12    47 1   
    39    13    22 1   
    40    13    48 1   
    41    14    15 ar  
    42    14    16 ar  
    43    15    49 1   
    44    16    21 1   
    45    17    30 1   
    46    17    50 1   
    47    18    19 1   
    48    18    31 1   
    49    18    51 1   
    50    19    20 1   
    51    19    32 1   
    52    19    52 1   
    53    20    33 1   
    54    20    53 1   
    55    22    24 1   
    56    23    24 2   
    57    25    54 1   
    58    28    55 1   
    59    29    56 1   
    60    30    57 1   
    61    31    58 1   
    62    32    59 1   
    63    33    60 1   
@<TRIPOS>SUBSTRUCTURE
     1 KP5         1 TEMP              0 ****  ****    0 ROOT
