@<TRIPOS>MOLECULE
KP5
   60    63     1     0     0
SMALL
No Charge or Current Charge


@<TRIPOS>ATOM
      1 C10        -20.6820     5.3780    -0.8970 c3         1 KP5       0.170600
      2 C17        -14.5240     8.5750    -1.1170 cc         1 KP5       0.246500
      3 C20        -11.0330     9.7780    -0.2890 ca         1 KP5      -0.127000
      4 C21        -10.9630     9.5500     1.0940 ca         1 KP5      -0.084000
      5 C22        -12.0650     8.9920     1.7620 ca         1 KP5      -0.149000
      6 C02        -24.3800     9.6100    -4.0340 c3         1 KP5       0.174600
      7 C03        -24.3940     9.4560    -2.4760 c6         1 KP5       0.167300
      8 C05        -22.9660     9.8020    -0.5370 c6         1 KP5       0.297300
      9 C07        -20.3120     9.1240    -1.0840 c6         1 KP5       0.252300
     10 C09        -20.0720     6.7340    -1.3810 c6         1 KP5       0.149300
     11 C12        -18.5140     6.7850    -1.2600 c6         1 KP5       0.133300
     12 C14        -18.0340     8.1850    -1.7570 c6         1 KP5       0.075300
     13 C16        -15.7860     8.6640    -0.6210 cd         1 KP5      -0.163000
     14 C18        -13.3320     8.9300    -0.3360 ca         1 KP5      -0.132500
     15 C19        -12.2040     9.4620    -1.0000 ca         1 KP5      -0.062000
     16 C23        -13.2360     8.6760     1.0540 ca         1 KP5       0.164000
     17 C27        -18.7640     9.3350    -0.9890 c6         1 KP5       0.150300
     18 C29        -24.0770    10.5990     0.2220 c6         1 KP5       0.134300
     19 C31        -25.4680    10.0940    -0.2560 c6         1 KP5       0.093300
     20 C33        -25.5880    10.2060    -1.8030 c6         1 KP5       0.148300
     21 F24        -14.2560     8.1010     1.7290 f          1 KP5      -0.191000
     22 N15        -16.5550     8.3000    -1.7080 na         1 KP5       0.121800
     23 N25        -14.5180     8.2100    -2.4320 nc         1 KP5      -0.353000
     24 N26        -15.7620     8.0220    -2.7980 nd         1 KP5      -0.197800
     25 O01        -24.1470    10.9620    -4.4870 oh         1 KP5      -0.716000
     26 O04        -23.1360     9.9670    -1.9610 os         1 KP5      -0.441000
     27 O08        -20.6680     7.8100    -0.6120 os         1 KP5      -0.414000
     28 O11        -22.1150     5.3160    -1.0500 oh         1 KP5      -0.721000
     29 O13        -18.0850     6.5460     0.1020 oh         1 KP5      -0.709000
     30 O28        -18.3810    10.6260    -1.5150 oh         1 KP5      -0.709000
     31 O30        -23.9750    10.4610     1.6590 oh         1 KP5      -0.706000
     32 O32        -26.5240    10.8280     0.3920 oh         1 KP5      -0.669000
     33 O34        -26.8670     9.6820    -2.2110 oh         1 KP5      -0.721000
     34 S06        -21.2620    10.3600    -0.0960 ss         1 KP5      -0.314000
     35 H101       -20.2070     4.5680    -1.4680 h1         1 KP5       0.041700
     36 H102       -20.4110     5.2340     0.1580 h1         1 KP5       0.041700
     37 H201       -10.1770    10.1990    -0.8130 ha         1 KP5       0.120000
     38 H211       -10.0560     9.7930     1.6430 ha         1 KP5       0.118000
     39 H221       -12.0100     8.7950     2.8290 ha         1 KP5       0.131000
     40 H022       -25.3360     9.2370    -4.4270 h1         1 KP5       0.039700
     41 H021       -23.5970     8.9460    -4.4240 h1         1 KP5       0.039700
     42 H031       -24.4590     8.3840    -2.2400 h1         1 KP5       0.049700
     43 H051       -23.0340     8.7350    -0.2730 h2         1 KP5       0.077700
     44 H071       -20.6330     9.2400    -2.1300 h2         1 KP5       0.074700
     45 H091       -20.3530     6.8610    -2.4370 h1         1 KP5       0.059700
     46 H121       -18.0950     6.0150    -1.9260 h1         1 KP5       0.059700
     47 H141       -18.3210     8.2730    -2.8150 h1         1 KP5       0.105700
     48 H161       -16.1760     8.9510     0.3450 h4         1 KP5       0.185000
     49 H191       -12.2360     9.6440    -2.0730 ha         1 KP5       0.138000
     50 H271       -18.4910     9.2690     0.0750 h1         1 KP5       0.072700
     51 H291       -23.9770    11.6590    -0.0610 h1         1 KP5       0.071700
     52 H311       -25.5440     9.0290     0.0140 h1         1 KP5       0.053700
     53 H331       -25.5140    11.2710    -2.0760 h1         1 KP5       0.082700
     54 H011       -24.0990    10.9310    -5.4710 ho         1 KP5       0.505000
     55 H111       -22.4100     4.4630    -0.6530 ho         1 KP5       0.510000
     56 H131       -17.1940     6.1250     0.0650 ho         1 KP5       0.513000
     57 H281       -18.8620    11.3090    -0.9900 ho         1 KP5       0.530000
     58 H301       -23.0770    10.7760     1.9170 ho         1 KP5       0.511000
     59 H321       -26.2180    10.9440     1.3220 ho         1 KP5       0.451000
     60 H341       -27.4910     9.9840    -1.5070 ho         1 KP5       0.520000
@<TRIPOS>BOND
     1     1    10 1   
     2     1    28 1   
     3     1    35 1   
     4     1    36 1   
     5     2    13 2   
     6     2    14 1   
     7     2    23 1   
     8     3     4 ar  
     9     3    15 ar  
    10     3    37 1   
    11     4     5 ar  
    12     4    38 1   
    13     5    16 ar  
    14     5    39 1   
    15     6     7 1   
    16     6    25 1   
    17     6    40 1   
    18     6    41 1   
    19     7    20 1   
    20     7    26 1   
    21     7    42 1   
    22     8    18 1   
    23     8    26 1   
    24     8    34 1   
    25     8    43 1   
    26     9    17 1   
    27     9    27 1   
    28     9    34 1   
    29     9    44 1   
    30    10    11 1   
    31    10    27 1   
    32    10    45 1   
    33    11    12 1   
    34    11    29 1   
    35    11    46 1   
    36    12    17 1   
    37    12    22 1   
    38    12    47 1   
    39    13    22 1   
    40    13    48 1   
    41    14    15 ar  
    42    14    16 ar  
    43    15    49 1   
    44    16    21 1   
    45    17    30 1   
    46    17    50 1   
    47    18    19 1   
    48    18    31 1   
    49    18    51 1   
    50    19    20 1   
    51    19    32 1   
    52    19    52 1   
    53    20    33 1   
    54    20    53 1   
    55    22    24 1   
    56    23    24 2   
    57    25    54 1   
    58    28    55 1   
    59    29    56 1   
    60    30    57 1   
    61    31    58 1   
    62    32    59 1   
    63    33    60 1   
@<TRIPOS>SUBSTRUCTURE
     1 KP5         1 TEMP              0 ****  ****    0 ROOT
