@<TRIPOS>MOLECULE
KP6
   25    25     1     0     0
SMALL
abcg2


@<TRIPOS>ATOM
      1 O11         -3.7990     0.5340     0.1880 oh         1 KP6      -0.666000
      2 C10         -2.4480     0.3550     0.5550 c3         1 KP6       0.160600
      3 C09         -1.6160     0.1560    -0.7040 c3         1 KP6       0.005900
      4 C08         -0.1790    -0.0760    -0.3740 cc         1 KP6      -0.204300
      5 C06          0.8180     0.8670    -0.2140 cd         1 KP6      -0.130300
      6 C07          0.7780     2.3470    -0.3480 c3         1 KP6      -0.031800
      7 N04          1.9360     0.1870     0.1130 na         1 KP6       0.130800
      8 C05          3.2220     0.7390     0.4590 c3         1 KP6       0.071900
      9 N03          1.7290    -1.1290     0.1900 nd         1 KP6      -0.525800
     10 C02          0.4540    -1.3070    -0.1040 cc         1 KP6       0.265300
     11 C01         -0.1540    -2.6680    -0.1400 c3         1 KP6      -0.119400
     12 H1          -4.3070     0.7010     0.9870 ho         1 KP6       0.441000
     13 H2          -2.0590     1.2230     1.1030 h1         1 KP6       0.018700
     14 H3          -2.3200    -0.5170     1.2120 h1         1 KP6       0.018700
     15 H4          -2.0120    -0.6940    -1.2660 hc         1 KP6       0.055200
     16 H5          -1.7250     1.0320    -1.3490 hc         1 KP6       0.055200
     17 H6           1.0320     2.8490     0.5870 hc         1 KP6       0.050367
     18 H7           1.4710     2.7080    -1.1110 hc         1 KP6       0.050367
     19 H8          -0.2210     2.6690    -0.6350 hc         1 KP6       0.050367
     20 H9           3.2410     1.0920     1.4900 h1         1 KP6       0.054700
     21 H10          3.9770    -0.0330     0.3370 h1         1 KP6       0.054700
     22 H11          3.4690     1.5700    -0.1980 h1         1 KP6       0.054700
     23 H12         -0.5370    -2.9080    -1.1340 hc         1 KP6       0.046367
     24 H13          0.5800    -3.4280     0.1260 hc         1 KP6       0.046367
     25 H14         -0.9910    -2.7510     0.5540 hc         1 KP6       0.046367
@<TRIPOS>BOND
     1     1     2 1   
     2     1    12 1   
     3     2     3 1   
     4     2    13 1   
     5     2    14 1   
     6     3     4 1   
     7     3    15 1   
     8     3    16 1   
     9     4     5 2   
    10     4    10 1   
    11     5     6 1   
    12     5     7 1   
    13     6    17 1   
    14     6    18 1   
    15     6    19 1   
    16     7     8 1   
    17     7     9 1   
    18     8    20 1   
    19     8    21 1   
    20     8    22 1   
    21     9    10 2   
    22    10    11 1   
    23    11    23 1   
    24    11    24 1   
    25    11    25 1   
@<TRIPOS>SUBSTRUCTURE
     1 KP6         1 TEMP              0 ****  ****    0 ROOT
