@<TRIPOS>MOLECULE
KP6
   25    25     1     0     0
SMALL
No Charge or Current Charge


@<TRIPOS>ATOM
      1 O11         -3.8620     0.4590     0.1190 oh         1 KP6      -0.666000
      2 C10         -2.5000     0.2840     0.5310 c3         1 KP6       0.160600
      3 C09         -1.5840     0.1420    -0.7020 c3         1 KP6       0.005900
      4 C08         -0.1310    -0.0470    -0.3310 cc         1 KP6      -0.204300
      5 C06          0.8440     0.8960    -0.1730 cd         1 KP6      -0.130300
      6 C07          0.7750     2.3970    -0.3110 c3         1 KP6      -0.031800
      7 N04          1.9970     0.1750     0.1630 na         1 KP6       0.130800
      8 C05          3.3320     0.7320     0.4340 c3         1 KP6       0.071900
      9 N03          1.7720    -1.1910     0.2260 nd         1 KP6      -0.525800
     10 C02          0.4940    -1.2870    -0.0740 cc         1 KP6       0.265300
     11 C01         -0.2260    -2.6060    -0.1370 c3         1 KP6      -0.119400
     12 H1          -4.3990     0.5490     0.9390 ho         1 KP6       0.441000
     13 H2          -2.1700     1.1470     1.1260 h1         1 KP6       0.018700
     14 H3          -2.4050    -0.6120     1.1580 h1         1 KP6       0.018700
     15 H4          -1.9320    -0.7000    -1.3130 hc         1 KP6       0.055200
     16 H5          -1.6920     1.0350    -1.3300 hc         1 KP6       0.055200
     17 H6           1.3320     2.8970     0.4900 hc         1 KP6       0.050367
     18 H7           1.1980     2.7220    -1.2690 hc         1 KP6       0.050367
     19 H8          -0.2600     2.7570    -0.2630 hc         1 KP6       0.050367
     20 H9           3.3040     1.3100     1.3650 h1         1 KP6       0.054700
     21 H10          4.0650    -0.0780     0.5320 h1         1 KP6       0.054700
     22 H11          3.6290     1.3880    -0.3930 h1         1 KP6       0.054700
     23 H12         -0.5700    -2.8130    -1.1570 hc         1 KP6       0.046367
     24 H13          0.4270    -3.4320     0.1700 hc         1 KP6       0.046367
     25 H14         -1.0990    -2.6070     0.5260 hc         1 KP6       0.046367
@<TRIPOS>BOND
     1     1     2 1   
     2     1    12 1   
     3     2     3 1   
     4     2    13 1   
     5     2    14 1   
     6     3     4 1   
     7     3    15 1   
     8     3    16 1   
     9     4     5 2   
    10     4    10 1   
    11     5     6 1   
    12     5     7 1   
    13     6    17 1   
    14     6    18 1   
    15     6    19 1   
    16     7     8 1   
    17     7     9 1   
    18     8    20 1   
    19     8    21 1   
    20     8    22 1   
    21     9    10 2   
    22    10    11 1   
    23    11    23 1   
    24    11    24 1   
    25    11    25 1   
@<TRIPOS>SUBSTRUCTURE
     1 KP6         1 TEMP              0 ****  ****    0 ROOT
