@<TRIPOS>MOLECULE
KP8
   49    52     1     0     0
SMALL
abcg2


@<TRIPOS>ATOM
      1 C02        -20.4480     5.9960    -0.3900 c3         1 KP8       0.172600
      2 C03        -19.7940     7.0810    -1.2140 c6         1 KP8       0.158300
      3 C05        -19.9290     9.4480    -1.5510 c6         1 KP8       0.285300
      4 C07        -22.1820     9.1290    -3.1480 ca         1 KP8      -0.097000
      5 C08        -22.9950     9.9910    -2.4090 ca         1 KP8      -0.069000
      6 C09        -24.3560     9.7340    -2.2960 ca         1 KP8      -0.113000
      7 C10        -24.9200     8.6340    -2.9380 ca         1 KP8      -0.091000
      8 C11        -24.1130     7.7860    -3.6880 ca         1 KP8      -0.113000
      9 C12        -22.7460     8.0250    -3.7860 ca         1 KP8      -0.069000
     10 C13        -18.4010     9.6020    -1.4550 c6         1 KP8       0.143300
     11 C15        -17.7170     8.2960    -1.8450 c6         1 KP8       0.066300
     12 C17        -15.5410     8.8490    -0.6650 cc         1 KP8      -0.176000
     13 C18        -14.2280     8.6840    -1.0580 cd         1 KP8       0.239500
     14 C19        -12.9930     9.0040    -0.3470 ca         1 KP8      -0.058500
     15 C20        -13.0370     9.5650     0.9340 ca         1 KP8      -0.131500
     16 C21        -11.8600     9.8650     1.5870 ca         1 KP8       0.157000
     17 C23        -10.6250     9.6260     1.0020 ca         1 KP8       0.090000
     18 C25        -10.5960     9.0660    -0.2660 ca         1 KP8       0.157000
     19 C27        -11.7540     8.7530    -0.9460 ca         1 KP8      -0.131500
     20 C30        -18.2790     7.1110    -1.0400 c6         1 KP8       0.131300
     21 F22        -11.8870    10.4040     2.8190 f          1 KP8      -0.157500
     22 F24         -9.4900     9.9280     1.6470 f          1 KP8      -0.143000
     23 F26         -9.3960     8.8330    -0.8280 f          1 KP8      -0.157500
     24 N16        -16.2710     8.3980    -1.7040 na         1 KP8       0.124800
     25 N28        -14.2390     8.1440    -2.3110 nd         1 KP8      -0.345000
     26 N29        -15.4700     7.9740    -2.6970 nc         1 KP8      -0.185800
     27 O01        -21.7890     5.8250    -0.8470 oh         1 KP8      -0.716000
     28 O04        -20.3740     8.3340    -0.8270 os         1 KP8      -0.412000
     29 O14        -17.9000    10.6260    -2.2940 oh         1 KP8      -0.695000
     30 O31        -17.9620     7.2240     0.3430 oh         1 KP8      -0.715000
     31 S06        -20.4400     9.4370    -3.3410 ss         1 KP8      -0.248000
     32 H022       -19.8740     5.0720    -0.5150 h1         1 KP8       0.041200
     33 H021       -20.4270     6.2760     0.6650 h1         1 KP8       0.041200
     34 H031       -20.0090     6.9020    -2.2720 h1         1 KP8       0.081700
     35 H051       -20.4070    10.3090    -1.0880 h2         1 KP8       0.096700
     36 H081       -22.5680    10.8590    -1.9250 ha         1 KP8       0.118000
     37 H091       -24.9790    10.4020    -1.7130 ha         1 KP8       0.115000
     38 H101       -25.9820     8.4410    -2.8530 ha         1 KP8       0.114000
     39 H111       -24.5430     6.9280    -4.1890 ha         1 KP8       0.115000
     40 H121       -22.1130     7.3520    -4.3480 ha         1 KP8       0.118000
     41 H131       -18.1850     9.8240    -0.4060 h1         1 KP8       0.061700
     42 H151       -17.8880     8.1040    -2.9040 h1         1 KP8       0.123700
     43 H171       -15.9860     9.2370     0.2330 h4         1 KP8       0.173000
     44 H201       -13.9730     9.7730     1.4340 ha         1 KP8       0.148000
     45 H271       -11.6890     8.3200    -1.9330 ha         1 KP8       0.148000
     46 H301       -17.8640     6.1870    -1.4500 h1         1 KP8       0.064700
     47 H011       -22.2470     5.2440    -0.2280 ho         1 KP8       0.508000
     48 H141       -18.1780    11.4820    -1.9430 ho         1 KP8       0.517000
     49 H311       -17.1510     6.7320     0.5200 ho         1 KP8       0.512000
@<TRIPOS>BOND
     1     1     2 1   
     2     1    27 1   
     3     1    32 1   
     4     1    33 1   
     5     2    20 1   
     6     2    28 1   
     7     2    34 1   
     8     3    10 1   
     9     3    28 1   
    10     3    31 1   
    11     3    35 1   
    12     4     5 ar  
    13     4     9 ar  
    14     4    31 1   
    15     5     6 ar  
    16     5    36 1   
    17     6     7 ar  
    18     6    37 1   
    19     7     8 ar  
    20     7    38 1   
    21     8     9 ar  
    22     8    39 1   
    23     9    40 1   
    24    10    11 1   
    25    10    29 1   
    26    10    41 1   
    27    11    20 1   
    28    11    24 1   
    29    11    42 1   
    30    12    13 2   
    31    12    24 1   
    32    12    43 1   
    33    13    14 1   
    34    13    25 1   
    35    14    15 ar  
    36    14    19 ar  
    37    15    16 ar  
    38    15    44 1   
    39    16    17 ar  
    40    16    21 1   
    41    17    18 ar  
    42    17    22 1   
    43    18    19 ar  
    44    18    23 1   
    45    19    45 1   
    46    20    30 1   
    47    20    46 1   
    48    24    26 1   
    49    25    26 2   
    50    27    47 1   
    51    29    48 1   
    52    30    49 1   
@<TRIPOS>SUBSTRUCTURE
     1 KP8         1 TEMP              0 ****  ****    0 ROOT
