@<TRIPOS>MOLECULE
KP8
   49    52     1     0     0
SMALL
No Charge or Current Charge


@<TRIPOS>ATOM
      1 C02        -20.4980     5.8960    -0.2400 c3         1 KP8       0.172600
      2 C03        -19.8010     6.9960    -1.1070 c6         1 KP8       0.158300
      3 C05        -19.9050     9.3970    -1.5730 c6         1 KP8       0.285300
      4 C07        -22.2850     9.0660    -3.2170 ca         1 KP8      -0.097000
      5 C08        -23.0150     9.5310    -2.1020 ca         1 KP8      -0.069000
      6 C09        -24.4160     9.4030    -2.0730 ca         1 KP8      -0.113000
      7 C10        -25.0950     8.8160    -3.1530 ca         1 KP8      -0.091000
      8 C11        -24.3730     8.3590    -4.2670 ca         1 KP8      -0.113000
      9 C12        -22.9730     8.4860    -4.2990 ca         1 KP8      -0.069000
     10 C13        -18.3460     9.5360    -1.4440 c6         1 KP8       0.143300
     11 C15        -17.6620     8.1730    -1.7880 c6         1 KP8       0.066300
     12 C17        -15.4410     8.8450    -0.7150 cc         1 KP8      -0.176000
     13 C18        -14.1470     8.5890    -1.0740 cd         1 KP8       0.239500
     14 C19        -12.9170     9.0240    -0.3760 ca         1 KP8      -0.058500
     15 C20        -12.9930     9.7970     0.8050 ca         1 KP8      -0.131500
     16 C21        -11.8230    10.2090     1.4660 ca         1 KP8       0.157000
     17 C23        -10.5600     9.8570     0.9620 ca         1 KP8       0.090000
     18 C25        -10.4740     9.0890    -0.2120 ca         1 KP8       0.157000
     19 C27        -11.6410     8.6750    -0.8760 ca         1 KP8      -0.131500
     20 C30        -18.2490     7.0200    -0.9130 c6         1 KP8       0.131300
     21 F22        -11.9230    10.9480     2.5950 f          1 KP8      -0.157500
     22 F24         -9.4330    10.2550     1.6010 f          1 KP8      -0.143000
     23 F26         -9.2660     8.7410    -0.7110 f          1 KP8      -0.157500
     24 N16        -16.1810     8.2220    -1.6950 na         1 KP8       0.124800
     25 N28        -14.1390     7.8300    -2.2260 nd         1 KP8      -0.345000
     26 N29        -15.3690     7.6050    -2.6020 nc         1 KP8      -0.185800
     27 O01        -21.9230     5.8200    -0.4510 oh         1 KP8      -0.716000
     28 O04        -20.3730     8.2890    -0.7650 os         1 KP8      -0.412000
     29 O14        -17.8250    10.5980    -2.2800 oh         1 KP8      -0.695000
     30 O31        -17.8970     7.2020     0.4790 oh         1 KP8      -0.715000
     31 S06        -20.4960     9.2060    -3.3320 ss         1 KP8      -0.248000
     32 H022       -20.0320     4.9300    -0.4790 h1         1 KP8       0.041200
     33 H021       -20.2870     6.1050     0.8180 h1         1 KP8       0.041200
     34 H031       -20.0270     6.7650    -2.1580 h1         1 KP8       0.081700
     35 H051       -20.3600    10.3260    -1.2020 h2         1 KP8       0.096700
     36 H081       -22.5170     9.9960    -1.2570 ha         1 KP8       0.118000
     37 H091       -24.9740     9.7620    -1.2110 ha         1 KP8       0.115000
     38 H101       -26.1790     8.7190    -3.1280 ha         1 KP8       0.114000
     39 H111       -24.8960     7.9060    -5.1070 ha         1 KP8       0.115000
     40 H121       -22.4210     8.1310    -5.1650 ha         1 KP8       0.118000
     41 H131       -18.1320     9.7650    -0.3900 h1         1 KP8       0.061700
     42 H151       -17.9000     7.9460    -2.8360 h1         1 KP8       0.123700
     43 H171       -15.8700     9.3900     0.1120 h4         1 KP8       0.173000
     44 H201       -13.9540    10.0860     1.2210 ha         1 KP8       0.148000
     45 H271       -11.5440     8.0810    -1.7820 ha         1 KP8       0.148000
     46 H301       -17.8470     6.0630    -1.2820 h1         1 KP8       0.064700
     47 H011       -22.2770     5.1730     0.2030 ho         1 KP8       0.508000
     48 H141       -18.0990    11.4580    -1.8820 ho         1 KP8       0.517000
     49 H311       -17.0430     6.7340     0.6350 ho         1 KP8       0.512000
@<TRIPOS>BOND
     1     1     2 1   
     2     1    27 1   
     3     1    32 1   
     4     1    33 1   
     5     2    20 1   
     6     2    28 1   
     7     2    34 1   
     8     3    10 1   
     9     3    28 1   
    10     3    31 1   
    11     3    35 1   
    12     4     5 ar  
    13     4     9 ar  
    14     4    31 1   
    15     5     6 ar  
    16     5    36 1   
    17     6     7 ar  
    18     6    37 1   
    19     7     8 ar  
    20     7    38 1   
    21     8     9 ar  
    22     8    39 1   
    23     9    40 1   
    24    10    11 1   
    25    10    29 1   
    26    10    41 1   
    27    11    20 1   
    28    11    24 1   
    29    11    42 1   
    30    12    13 2   
    31    12    24 1   
    32    12    43 1   
    33    13    14 1   
    34    13    25 1   
    35    14    15 ar  
    36    14    19 ar  
    37    15    16 ar  
    38    15    44 1   
    39    16    17 ar  
    40    16    21 1   
    41    17    18 ar  
    42    17    22 1   
    43    18    19 ar  
    44    18    23 1   
    45    19    45 1   
    46    20    30 1   
    47    20    46 1   
    48    24    26 1   
    49    25    26 2   
    50    27    47 1   
    51    29    48 1   
    52    30    49 1   
@<TRIPOS>SUBSTRUCTURE
     1 KP8         1 TEMP              0 ****  ****    0 ROOT
