@<TRIPOS>MOLECULE
KP9
   77    80     1     0     0
SMALL
No Charge or Current Charge


@<TRIPOS>ATOM
      1 CBB          5.4150    39.0620     8.8680 c3         1 KP9      -0.205400
      2 CBA         -0.5660    42.5920    15.0880 c3         1 KP9      -0.086100
      3 CBC          0.7290    35.7140     4.8350 ce         1 KP9      -0.211200
      4 NB           1.0910    40.0440     9.9610 na         1 KP9      -0.068000
      5 ND          -2.7120    41.2290     4.9150 ns         1 KP9      -0.495900
      6 C1A          2.9530    44.5370    12.7260 c          1 KP9       0.555200
      7 C1B          1.7280    40.5440    11.0930 cc         1 KP9      -0.161800
      8 C1C          0.3250    38.5470     7.3120 cd         1 KP9       0.005600
      9 C1D         -3.0860    41.0770     6.3280 c5         1 KP9       0.135900
     10 C2A          1.6870    44.7510    13.4470 cc         1 KP9      -0.202400
     11 C2B          2.9730    39.9670    11.1050 cd         1 KP9      -0.149300
     12 C2C          0.1020    37.8220     6.0930 cd         1 KP9       0.053000
     13 C2D         -4.5170    41.6490     6.3110 c2         1 KP9      -0.093400
     14 C3A          0.8460    43.6620    13.2750 cd         1 KP9      -0.045200
     15 C3B          3.0930    39.1170     9.9710 cd         1 KP9      -0.043300
     16 C3C         -1.1840    38.1380     5.7530 cc         1 KP9      -0.320800
     17 C3D         -4.8630    41.9660     5.0450 ce         1 KP9      -0.154200
     18 C4A          1.5750    42.7300    12.4490 cd         1 KP9       0.015600
     19 C4B          1.9170    39.1720     9.2620 cc         1 KP9      -0.151800
     20 C4C         -1.6570    39.0160     6.7770 cc         1 KP9       0.415600
     21 C4D         -3.7250    41.6970     4.1420 c          1 KP9       0.565200
     22 CAB          4.3110    38.2850     9.6270 c3         1 KP9      -0.001100
     23 CAC          1.0170    36.9460     5.3590 cf         1 KP9      -0.242000
     24 CAD         -6.1870    42.4990     4.6460 ce         1 KP9      -0.160000
     25 CBD         -6.5470    42.8980     3.4070 c2         1 KP9      -0.300000
     26 CGB          4.9030    39.5560     7.5040 c          1 KP9       0.708000
     27 CGC          1.6810    34.8140     4.1130 c          1 KP9       0.689200
     28 CHB          1.5100    38.5060     8.0220 ce         1 KP9       0.046800
     29 CHC         -3.0430    39.6080     6.7970 c3         1 KP9      -0.092700
     30 CMC         -1.9860    37.6910     4.5520 c3         1 KP9      -0.007900
     31 CMD         -5.3480    41.7590     7.5760 c3         1 KP9      -0.045900
     32 NA           2.7790    43.3150    12.1710 ns         1 KP9      -0.406100
     33 NC          -0.7750    39.2830     7.7300 nd         1 KP9      -0.663300
     34 O1B          4.4890    40.7020     7.4170 o          1 KP9      -0.726500
     35 O1C          1.2550    33.7430     3.7130 o          1 KP9      -0.719000
     36 O2B          4.9210    38.7700     6.5680 o          1 KP9      -0.726500
     37 O2C          2.8350    35.1820     3.9540 o          1 KP9      -0.719000
     38 OA           3.9360    45.2550    12.6250 o          1 KP9      -0.549000
     39 HBB2         6.2140    38.3250     8.7220 hc         1 KP9       0.016200
     40 HBB1         5.7090    39.9030     9.5070 hc         1 KP9       0.016200
     41 HBA3        -1.5890    42.4910    15.4700 hc         1 KP9       0.034700
     42 HBA2        -0.1840    41.5910    14.8550 hc         1 KP9       0.034700
     43 HBA1         0.0570    43.0240    15.8800 hc         1 KP9       0.034700
     44 HBC1        -0.2810    35.3250     4.9420 ha         1 KP9       0.134000
     45 HNB          0.1490    40.2800     9.6600 hn         1 KP9       0.381000
     46 HND         -1.8300    40.9770     4.4860 hn         1 KP9       0.360500
     47 H1D1        -2.4330    41.6760     6.9800 h1         1 KP9       0.080700
     48 HAA2        -0.9740    44.4650    14.0950 hc         1 KP9       0.047200
     49 HAA1        -1.2110    43.0620    13.0760 hc         1 KP9       0.047200
     50 HAB1         4.0190    37.4110     9.0340 hc         1 KP9       0.033700
     51 HAB2         4.7460    37.8730    10.5440 hc         1 KP9       0.033700
     52 HAC1         2.0450    37.3080     5.2760 ha         1 KP9       0.234000
     53 HAD1        -6.9330    42.5650     5.4390 ha         1 KP9       0.152000
     54 HBD1        -7.5500    43.2760     3.2060 ha         1 KP9       0.169000
     55 HBD2        -5.8710    42.8690     2.5530 ha         1 KP9       0.169000
     56 HHA1         0.1000    41.2740    12.2810 ha         1 KP9       0.175000
     57 HHB1         2.2790    37.8760     7.5790 ha         1 KP9       0.264000
     58 HHC2        -3.4300    39.5470     7.8210 hc         1 KP9       0.051200
     59 HHC1        -3.7280    39.0020     6.1940 hc         1 KP9       0.051200
     60 HMA3         0.9350    46.7650    13.6080 hc         1 KP9       0.039033
     61 HMA2         0.8640    45.8410    15.1200 hc         1 KP9       0.039033
     62 HMA1         2.4120    46.4720    14.5450 hc         1 KP9       0.039033
     63 HMB2         4.8490    40.8150    11.7650 hc         1 KP9       0.030033
     64 HMB3         3.6390    40.6610    13.0500 hc         1 KP9       0.030033
     65 HMB1         4.4850    39.2290    12.4680 hc         1 KP9       0.030033
     66 HMC1        -2.5920    38.5070     4.1440 hc         1 KP9       0.028700
     67 HMC3        -1.3330    37.3420     3.7430 hc         1 KP9       0.028700
     68 HMC2        -2.6610    36.8690     4.8200 hc         1 KP9       0.028700
     69 HMD1        -4.7080    41.9300     8.4500 hc         1 KP9       0.043700
     70 HMD2        -6.0580    42.5930     7.5300 hc         1 KP9       0.043700
     71 HMD3        -5.9160    40.8390     7.7530 hc         1 KP9       0.043700
     72 HNA          3.5030    42.9050    11.5960 hn         1 KP9       0.364500
     73 CHA          1.1280    41.5080    12.0070 ce         1 KP9      -0.124200
     74 CAA         -0.5460    43.4890    13.8370 c3         1 KP9      -0.027200
     75 CMB          4.0430    40.1800    12.1510 c3         1 KP9      -0.011800
     76 CMA          1.4640    46.0260    14.2220 c3         1 KP9      -0.021900
     77 OD          -3.6470    41.8500     2.9330 o          1 KP9      -0.569000
@<TRIPOS>BOND
     1     1    22 1   
     2     1    26 1   
     3     1    39 1   
     4     1    40 1   
     5     2    41 1   
     6     2    42 1   
     7     2    43 1   
     8     2    74 1   
     9     3    23 2   
    10     3    27 1   
    11     3    44 1   
    12     4     7 1   
    13     4    19 1   
    14     4    45 1   
    15     5     9 1   
    16     5    21 1   
    17     5    46 1   
    18     6    10 1   
    19     6    32 1   
    20     6    38 2   
    21     7    11 2   
    22     7    73 1   
    23     8    12 1   
    24     8    28 2   
    25     8    33 1   
    26     9    13 1   
    27     9    29 1   
    28     9    47 1   
    29    10    14 2   
    30    10    76 1   
    31    11    15 1   
    32    11    75 1   
    33    12    16 2   
    34    12    23 1   
    35    13    17 2   
    36    13    31 1   
    37    14    18 1   
    38    14    74 1   
    39    15    19 2   
    40    15    22 1   
    41    16    20 1   
    42    16    30 1   
    43    17    21 1   
    44    17    24 1   
    45    18    32 1   
    46    18    73 2   
    47    19    28 1   
    48    20    29 1   
    49    20    33 2   
    50    21    77 2   
    51    22    50 1   
    52    22    51 1   
    53    23    52 1   
    54    24    25 2   
    55    24    53 1   
    56    25    54 1   
    57    25    55 1   
    58    26    34 1   
    59    26    36 1   
    60    27    35 1   
    61    27    37 1   
    62    28    57 1   
    63    29    58 1   
    64    29    59 1   
    65    30    66 1   
    66    30    67 1   
    67    30    68 1   
    68    31    69 1   
    69    31    70 1   
    70    31    71 1   
    71    32    72 1   
    72    48    74 1   
    73    49    74 1   
    74    56    73 1   
    75    60    76 1   
    76    61    76 1   
    77    62    76 1   
    78    63    75 1   
    79    64    75 1   
    80    65    75 1   
@<TRIPOS>SUBSTRUCTURE
     1 KP9         1 TEMP              0 ****  ****    0 ROOT
