@<TRIPOS>MOLECULE
KP9
   77    80     1     0     0
SMALL
bcc


@<TRIPOS>ATOM
      1 CBB          5.3990    38.9490     8.9920 c3         1 KP9      -0.205400
      2 CBA         -0.9250    42.7030    14.5190 c3         1 KP9      -0.086100
      3 CBC          0.7920    35.8770     4.4770 ce         1 KP9      -0.161200
      4 NB           1.0290    39.9540     9.7560 na         1 KP9      -0.119100
      5 ND          -2.5360    41.2420     5.3820 ns         1 KP9      -0.562900
      6 C1A          2.7070    44.5060    12.4450 c          1 KP9       0.697700
      7 C1B          1.6070    40.5850    10.7990 cc         1 KP9      -0.111100
      8 C1C          0.4160    38.3230     7.3540 cd         1 KP9       0.005600
      9 C1D         -2.9190    40.9510     6.7350 c5         1 KP9       0.135900
     10 C2A          1.3880    44.7750    13.0590 cc         1 KP9      -0.202400
     11 C2B          2.8890    40.0430    10.9730 cd         1 KP9      -0.149300
     12 C2C          0.1180    37.6280     6.1160 cd         1 KP9       0.053000
     13 C2D         -4.2650    41.6050     6.8320 c2         1 KP9      -0.093400
     14 C3A          0.5770    43.7320    12.7950 cd         1 KP9      -0.045200
     15 C3B          3.0700    39.0800     9.9660 cd         1 KP9      -0.043300
     16 C3C         -1.1850    37.9540     5.8160 cc         1 KP9      -0.320800
     17 C3D         -4.5870    42.1780     5.6570 ce         1 KP9      -0.154200
     18 C4A          1.3400    42.7420    12.0260 cd         1 KP9       0.015600
     19 C4B          1.8930    39.0510     9.2040 cc         1 KP9      -0.101100
     20 C4C         -1.6270    38.8110     6.8890 cc         1 KP9       0.415600
     21 C4D         -3.4580    41.9640     4.7070 c          1 KP9       0.707700
     22 CAB          4.2890    38.2390     9.7720 c3         1 KP9      -0.001100
     23 CAC          1.0720    36.8200     5.3850 cf         1 KP9      -0.192000
     24 CAD         -5.8150    42.8940     5.3550 ce         1 KP9      -0.110000
     25 CBD         -6.1820    43.4080     4.1790 c2         1 KP9      -0.200000
     26 CGB          5.0990    39.1090     7.4880 c          1 KP9       0.918600
     27 CGC          1.8590    35.0950     3.7410 c          1 KP9       0.899800
     28 CHB          1.5980    38.3070     8.0420 ce         1 KP9       0.096800
     29 CHC         -2.9720    39.4450     7.0270 c3         1 KP9      -0.092700
     30 CMC         -1.9930    37.5730     4.6220 c3         1 KP9      -0.007900
     31 CMD         -5.0470    41.5320     8.0910 c3         1 KP9      -0.045900
     32 NA           2.6120    43.2610    11.8760 ns         1 KP9      -0.473100
     33 NC          -0.6920    39.0310     7.7770 nd         1 KP9      -0.663300
     34 O1B          5.3230    40.2210     6.9750 o          1 KP9      -0.831800
     35 O1C          1.4320    34.2500     2.9260 o          1 KP9      -0.824300
     36 O2B          4.6860    38.0860     6.8970 o          1 KP9      -0.831800
     37 O2C          3.0520    35.3530     4.0020 o          1 KP9      -0.824300
     38 OA           3.6850    45.2270    12.4280 o          1 KP9      -0.624500
     39 HBB2         6.3140    38.3530     9.0890 hc         1 KP9       0.016200
     40 HBB1         5.6130    39.9180     9.4490 hc         1 KP9       0.016200
     41 HBA3        -1.9660    42.5680    14.8120 hc         1 KP9       0.034700
     42 HBA2        -0.4810    41.7160    14.3900 hc         1 KP9       0.034700
     43 HBA1        -0.4060    43.1990    15.3390 hc         1 KP9       0.034700
     44 HBC1        -0.2380    35.6260     4.2480 ha         1 KP9       0.084000
     45 HNB          0.1070    40.1190     9.3650 hn         1 KP9       0.330700
     46 HND         -1.6330    41.0110     4.9970 hn         1 KP9       0.360500
     47 H1D1        -2.2280    41.4190     7.4470 h1         1 KP9       0.080700
     48 HAA2        -1.3030    44.5010    13.3950 hc         1 KP9       0.047200
     49 HAA1        -1.4070    43.0440    12.4430 hc         1 KP9       0.047200
     50 HAB1         4.0350    37.3080     9.2640 hc         1 KP9       0.033700
     51 HAB2         4.6710    37.9520    10.7560 hc         1 KP9       0.033700
     52 HAC1         2.1220    37.0030     5.5980 ha         1 KP9       0.184000
     53 HAD1        -6.5010    43.0050     6.1880 ha         1 KP9       0.102000
     54 HBD1        -7.1330    43.9160     4.0850 ha         1 KP9       0.119000
     55 HBD2        -5.5710    43.3440     3.2920 ha         1 KP9       0.119000
     56 HHA1        -0.1940    41.3970    11.6600 ha         1 KP9       0.125000
     57 HHB1         2.4130    37.7050     7.6600 ha         1 KP9       0.214000
     58 HHC2        -3.3250    39.3030     8.0510 hc         1 KP9       0.051200
     59 HHC1        -3.7020    38.9780     6.3640 hc         1 KP9       0.051200
     60 HMA3         1.3230    46.9050    13.2040 hc         1 KP9       0.039033
     61 HMA2         0.0980    46.0800    14.1660 hc         1 KP9       0.039033
     62 HMA1         1.7790    46.0940    14.6900 hc         1 KP9       0.039033
     63 HMB2         4.6640    40.9880    11.7730 hc         1 KP9       0.030033
     64 HMB3         3.3470    40.8070    12.9280 hc         1 KP9       0.030033
     65 HMB1         4.3040    39.4150    12.4470 hc         1 KP9       0.030033
     66 HMC1        -2.8040    38.2790     4.4480 hc         1 KP9       0.028700
     67 HMC3        -1.3770    37.5510     3.7210 hc         1 KP9       0.028700
     68 HMC2        -2.4420    36.5820     4.7240 hc         1 KP9       0.028700
     69 HMD1        -4.4130    41.7480     8.9530 hc         1 KP9       0.043700
     70 HMD2        -5.8870    42.2230     8.1050 hc         1 KP9       0.043700
     71 HMD3        -5.4460    40.5250     8.2390 hc         1 KP9       0.043700
     72 HNA          3.3240    42.8720    11.2790 hn         1 KP9       0.364500
     73 CHA          0.8680    41.5820    11.5360 ce         1 KP9      -0.074200
     74 CAA         -0.8330    43.5300    13.2350 c3         1 KP9      -0.027200
     75 CMB          3.8450    40.3350    12.0820 c3         1 KP9      -0.011800
     76 CMA          1.1270    46.0240    13.8170 c3         1 KP9      -0.021900
     77 OD          -3.3570    42.3540     3.5560 o          1 KP9      -0.644500
@<TRIPOS>BOND
     1     1    22 1   
     2     1    26 1   
     3     1    39 1   
     4     1    40 1   
     5     2    41 1   
     6     2    42 1   
     7     2    43 1   
     8     2    74 1   
     9     3    23 2   
    10     3    27 1   
    11     3    44 1   
    12     4     7 1   
    13     4    19 1   
    14     4    45 1   
    15     5     9 1   
    16     5    21 1   
    17     5    46 1   
    18     6    10 1   
    19     6    32 1   
    20     6    38 2   
    21     7    11 2   
    22     7    73 1   
    23     8    12 1   
    24     8    28 2   
    25     8    33 1   
    26     9    13 1   
    27     9    29 1   
    28     9    47 1   
    29    10    14 2   
    30    10    76 1   
    31    11    15 1   
    32    11    75 1   
    33    12    16 2   
    34    12    23 1   
    35    13    17 2   
    36    13    31 1   
    37    14    18 1   
    38    14    74 1   
    39    15    19 2   
    40    15    22 1   
    41    16    20 1   
    42    16    30 1   
    43    17    21 1   
    44    17    24 1   
    45    18    32 1   
    46    18    73 2   
    47    19    28 1   
    48    20    29 1   
    49    20    33 2   
    50    21    77 2   
    51    22    50 1   
    52    22    51 1   
    53    23    52 1   
    54    24    25 2   
    55    24    53 1   
    56    25    54 1   
    57    25    55 1   
    58    26    34 1   
    59    26    36 1   
    60    27    35 1   
    61    27    37 1   
    62    28    57 1   
    63    29    58 1   
    64    29    59 1   
    65    30    66 1   
    66    30    67 1   
    67    30    68 1   
    68    31    69 1   
    69    31    70 1   
    70    31    71 1   
    71    32    72 1   
    72    48    74 1   
    73    49    74 1   
    74    56    73 1   
    75    60    76 1   
    76    61    76 1   
    77    62    76 1   
    78    63    75 1   
    79    64    75 1   
    80    65    75 1   
@<TRIPOS>SUBSTRUCTURE
     1 KP9         1 TEMP              0 ****  ****    0 ROOT
