@<TRIPOS>MOLECULE
KPB
   49    52     1     0     0
SMALL
abcg2


@<TRIPOS>ATOM
      1 N1         -16.4640     8.0130    -1.1670 na         1 KPB       0.122800
      2 N3         -15.7130     7.6320    -2.2160 nc         1 KPB      -0.182800
      3 C4         -24.2020     7.2550    -3.2830 ca         1 KPB       0.167000
      4 C5         -22.8640     7.5890    -3.3760 ca         1 KPB      -0.113000
      5 C6         -22.3620     8.5700    -2.5200 ca         1 KPB      -0.068000
      6 C7         -20.1120     9.0950    -0.9300 c6         1 KPB       0.286300
      7 C8         -19.9810     6.7390    -0.5360 c6         1 KPB       0.156300
      8 C10        -18.4630     6.7650    -0.3890 c6         1 KPB       0.133300
      9 C13        -14.3920     8.3130    -0.6270 cd         1 KPB       0.240500
     10 C15        -11.9330     8.5920    -0.7240 ca         1 KPB      -0.130500
     11 C17        -10.6800     9.2650     1.2260 ca         1 KPB       0.091000
     12 C20        -18.5790     9.2420    -0.8890 c6         1 KPB       0.143300
     13 C1         -25.0600     7.8280    -2.3640 ca         1 KPB      -0.134000
     14 C11        -17.9150     7.9170    -1.2490 c6         1 KPB       0.066300
     15 C12        -15.6840     8.4450    -0.1560 cc         1 KPB      -0.177000
     16 C14        -13.1200     8.6350     0.0170 ca         1 KPB      -0.059500
     17 C16        -10.7380     8.9060    -0.1120 ca         1 KPB       0.157000
     18 C18        -11.8620     9.3010     1.9490 ca         1 KPB       0.157000
     19 C19        -13.0750     8.9920     1.3680 ca         1 KPB      -0.130500
     20 C2         -24.5400     8.7980    -1.5110 ca         1 KPB      -0.083000
     21 C3         -23.2070     9.1800    -1.5910 ca         1 KPB      -0.095000
     22 C9         -20.6340     5.6810     0.3220 c3         1 KPB       0.172600
     23 F1          -9.5880     8.8760    -0.8100 f          1 KPB      -0.158000
     24 F2         -11.8000     9.6430     3.2490 f          1 KPB      -0.158000
     25 N2         -14.4660     7.8110    -1.8930 nd         1 KPB      -0.345000
     26 O1         -20.5440     8.0070    -0.1670 os         1 KPB      -0.412000
     27 O2         -21.9820     5.5160    -0.1190 oh         1 KPB      -0.716000
     28 O3         -18.1190     6.9290     0.9830 oh         1 KPB      -0.715000
     29 O4         -18.1060    10.2260    -1.7900 oh         1 KPB      -0.694000
     30 S1         -20.6570     9.0310    -2.7140 ss         1 KPB      -0.234000
     31 H51        -22.2270     7.0870    -4.0920 ha         1 KPB       0.142000
     32 H71        -20.5690     9.9750    -0.4820 h2         1 KPB       0.098700
     33 H81        -20.2160     6.5360    -1.5850 h1         1 KPB       0.083700
     34 H101       -18.0600     5.8260    -0.7730 h1         1 KPB       0.065700
     35 H151       -11.9390     8.3220    -1.7700 ha         1 KPB       0.148000
     36 H201       -18.3270     9.5080     0.1410 h1         1 KPB       0.063700
     37 H11        -26.0970     7.5250    -2.3210 ha         1 KPB       0.134000
     38 H111       -18.1220     7.6890    -2.2950 h1         1 KPB       0.124700
     39 H121       -16.0850     8.8060     0.7730 h4         1 KPB       0.173000
     40 H191       -13.9660     9.0290     1.9790 ha         1 KPB       0.148000
     41 H21        -25.1880     9.2680    -0.7820 ha         1 KPB       0.119000
     42 H31        -22.8310     9.9480    -0.9300 ha         1 KPB       0.118000
     43 H91        -20.0720     4.7470     0.2100 h1         1 KPB       0.041700
     44 H92        -20.5990     5.9840     1.3700 h1         1 KPB       0.041700
     45 H22        -22.4380     4.9440     0.5100 ho         1 KPB       0.509000
     46 H32        -17.3290     6.4090     1.1720 ho         1 KPB       0.513000
     47 H41        -18.3450    11.1000    -1.4540 ho         1 KPB       0.518000
     48 F3          -9.5100     9.5700     1.8030 f          1 KPB      -0.143000
     49 F4         -24.6870     6.3060    -4.1260 f          1 KPB      -0.183000
@<TRIPOS>BOND
     1     1     2 1   
     2     1    14 1   
     3     1    15 1   
     4     2    25 2   
     5     3     4 ar  
     6     3    13 ar  
     7     3    49 1   
     8     4     5 ar  
     9     4    31 1   
    10     5    21 ar  
    11     5    30 1   
    12     6    12 1   
    13     6    26 1   
    14     6    30 1   
    15     6    32 1   
    16     7     8 1   
    17     7    22 1   
    18     7    26 1   
    19     7    33 1   
    20     8    14 1   
    21     8    28 1   
    22     8    34 1   
    23     9    15 2   
    24     9    16 1   
    25     9    25 1   
    26    10    16 ar  
    27    10    17 ar  
    28    10    35 1   
    29    11    17 ar  
    30    11    18 ar  
    31    11    48 1   
    32    12    14 1   
    33    12    29 1   
    34    12    36 1   
    35    13    20 ar  
    36    13    37 1   
    37    14    38 1   
    38    15    39 1   
    39    16    19 ar  
    40    17    23 1   
    41    18    19 ar  
    42    18    24 1   
    43    19    40 1   
    44    20    21 ar  
    45    20    41 1   
    46    21    42 1   
    47    22    27 1   
    48    22    43 1   
    49    22    44 1   
    50    27    45 1   
    51    28    46 1   
    52    29    47 1   
@<TRIPOS>SUBSTRUCTURE
     1 KPB         1 TEMP              0 ****  ****    0 ROOT
