@<TRIPOS>MOLECULE
KPB
   49    52     1     0     0
SMALL
No Charge or Current Charge


@<TRIPOS>ATOM
      1 N1         -16.3470     7.8650    -1.2350 na         1 KPB       0.122800
      2 N3         -15.5490     7.2910    -2.1800 nc         1 KPB      -0.182800
      3 C4         -24.5570     7.6390    -3.4490 ca         1 KPB       0.167000
      4 C5         -23.1730     7.8490    -3.5480 ca         1 KPB      -0.113000
      5 C6         -22.4920     8.5690    -2.5490 ca         1 KPB      -0.068000
      6 C7         -20.0870     8.9690    -0.9850 c6         1 KPB       0.286300
      7 C8         -19.9290     6.5580    -0.5880 c6         1 KPB       0.156300
      8 C10        -18.3730     6.6060    -0.4330 c6         1 KPB       0.133300
      9 C13        -14.3050     8.2520    -0.6570 cd         1 KPB       0.240500
     10 C15        -11.7960     8.3800    -0.5210 ca         1 KPB      -0.130500
     11 C17        -10.6880     9.5280     1.3210 ca         1 KPB       0.091000
     12 C20        -18.5280     9.1330    -0.8950 c6         1 KPB       0.143300
     13 C1         -25.2760     8.1490    -2.3570 ca         1 KPB      -0.134000
     14 C11        -17.8290     7.7910    -1.2920 c6         1 KPB       0.066300
     15 C12        -15.5930     8.4740    -0.2570 cc         1 KPB      -0.177000
     16 C14        -13.0650     8.6900     0.0210 ca         1 KPB      -0.059500
     17 C16        -10.6200     8.7960     0.1240 ca         1 KPB       0.157000
     18 C18        -11.9440     9.8420     1.8690 ca         1 KPB       0.157000
     19 C19        -13.1230     9.4270     1.2260 ca         1 KPB      -0.130500
     20 C2         -24.6050     8.8770    -1.3590 ca         1 KPB      -0.083000
     21 C3         -23.2170     9.0880    -1.4550 ca         1 KPB      -0.095000
     22 C9         -20.5840     5.4230     0.2650 c3         1 KPB       0.172600
     23 F1          -9.4190     8.4860    -0.4160 f          1 KPB      -0.158000
     24 F2         -12.0270    10.5460     3.0210 f          1 KPB      -0.158000
     25 N2         -14.3140     7.5280    -1.8310 nd         1 KPB      -0.345000
     26 O1         -20.5140     7.8310    -0.1960 os         1 KPB      -0.412000
     27 O2         -22.0130     5.3270     0.0850 oh         1 KPB      -0.716000
     28 O3         -17.9890     6.7580     0.9550 oh         1 KPB      -0.715000
     29 O4         -18.0500    10.2250    -1.7170 oh         1 KPB      -0.694000
     30 S1         -20.7230     8.8130    -2.7310 ss         1 KPB      -0.234000
     31 H51        -22.6300     7.4490    -4.4000 ha         1 KPB       0.142000
     32 H71        -20.5490     9.8780    -0.5760 h2         1 KPB       0.098700
     33 H81        -20.1780     6.3510    -1.6380 h1         1 KPB       0.083700
     34 H101       -17.9630     5.6660    -0.8370 h1         1 KPB       0.065700
     35 H151       -11.7130     7.8150    -1.4460 ha         1 KPB       0.148000
     36 H201       -18.2890     9.3390     0.1600 h1         1 KPB       0.063700
     37 H11        -26.3480     7.9830    -2.2870 ha         1 KPB       0.134000
     38 H111       -18.0900     7.5870    -2.3390 h1         1 KPB       0.124700
     39 H121       -16.0100     8.9870     0.5970 h4         1 KPB       0.173000
     40 H191       -14.0780     9.6860     1.6750 ha         1 KPB       0.148000
     41 H21        -25.1580     9.2780    -0.5130 ha         1 KPB       0.119000
     42 H31        -22.7210     9.6610    -0.6780 ha         1 KPB       0.118000
     43 H91        -20.1070     4.4720    -0.0100 h1         1 KPB       0.041700
     44 H92        -20.3530     5.6080     1.3230 h1         1 KPB       0.041700
     45 H22        -22.3400     4.6590     0.7310 ho         1 KPB       0.509000
     46 H32        -17.1230     6.3010     1.0770 ho         1 KPB       0.513000
     47 H41        -18.3110    11.0700    -1.2800 ho         1 KPB       0.518000
     48 F3          -9.5530     9.9290     1.9430 f          1 KPB      -0.143000
     49 F4         -25.2020     6.9430    -4.4110 f          1 KPB      -0.183000
@<TRIPOS>BOND
     1     1     2 1   
     2     1    14 1   
     3     1    15 1   
     4     2    25 2   
     5     3     4 ar  
     6     3    13 ar  
     7     3    49 1   
     8     4     5 ar  
     9     4    31 1   
    10     5    21 ar  
    11     5    30 1   
    12     6    12 1   
    13     6    26 1   
    14     6    30 1   
    15     6    32 1   
    16     7     8 1   
    17     7    22 1   
    18     7    26 1   
    19     7    33 1   
    20     8    14 1   
    21     8    28 1   
    22     8    34 1   
    23     9    15 2   
    24     9    16 1   
    25     9    25 1   
    26    10    16 ar  
    27    10    17 ar  
    28    10    35 1   
    29    11    17 ar  
    30    11    18 ar  
    31    11    48 1   
    32    12    14 1   
    33    12    29 1   
    34    12    36 1   
    35    13    20 ar  
    36    13    37 1   
    37    14    38 1   
    38    15    39 1   
    39    16    19 ar  
    40    17    23 1   
    41    18    19 ar  
    42    18    24 1   
    43    19    40 1   
    44    20    21 ar  
    45    20    41 1   
    46    21    42 1   
    47    22    27 1   
    48    22    43 1   
    49    22    44 1   
    50    27    45 1   
    51    28    46 1   
    52    29    47 1   
@<TRIPOS>SUBSTRUCTURE
     1 KPB         1 TEMP              0 ****  ****    0 ROOT
