@<TRIPOS>MOLECULE
KPC
   20    19     1     0     0
SMALL
abcg2


@<TRIPOS>ATOM
      1 CAK         -1.0940     0.0290     5.1200 c3         1 KPC      -0.200100
      2 CAJ         -0.0560     0.0100     4.0350 c          1 KPC       0.582100
      3 OAC          1.1320     0.0150     4.2550 o          1 KPC      -0.502100
      4 CAI         -0.5930    -0.0110     2.6270 c3         1 KPC      -0.068400
      5 SAH          0.7640     0.0070     1.4350 ss         1 KPC      -0.420000
      6 CAG         -0.2190    -0.0120    -0.0930 c3         1 KPC       0.117600
      7 CAF          0.7270    -0.0120    -1.2780 c3         1 KPC      -0.346400
      8 SAE         -0.1600    -0.0150    -2.8510 s6         1 KPC       1.321600
      9 OAD         -0.9760    -1.2460    -2.8450 o          1 KPC      -0.693867
     10 OAL          0.8930    -0.0200    -3.8840 o          1 KPC      -0.693867
     11 OAB         -0.9730     1.2170    -2.8520 o          1 KPC      -0.693867
     12 HAK1        -0.6370    -0.0230     6.1050 hc         1 KPC       0.055033
     13 HAK2        -1.6850     0.9450     5.0490 hc         1 KPC       0.055033
     14 HAK3        -1.7880    -0.8030     4.9970 hc         1 KPC       0.055033
     15 HAI1        -1.2140    -0.9020     2.4970 h1         1 KPC       0.071700
     16 HAI2        -1.2520     0.8500     2.4820 h1         1 KPC       0.071700
     17 HAG1        -0.8490    -0.9030    -0.1080 h1         1 KPC       0.064700
     18 HAG2        -0.8650     0.8670    -0.1200 h1         1 KPC       0.064700
     19 HAF1         1.3660     0.8740    -1.2710 h1         1 KPC       0.079700
     20 HAF2         1.3700    -0.8940    -1.2670 h1         1 KPC       0.079700
@<TRIPOS>BOND
     1     1     2 1   
     2     1    12 1   
     3     1    13 1   
     4     1    14 1   
     5     2     3 2   
     6     2     4 1   
     7     4     5 1   
     8     4    15 1   
     9     4    16 1   
    10     5     6 1   
    11     6     7 1   
    12     6    17 1   
    13     6    18 1   
    14     7     8 1   
    15     7    19 1   
    16     7    20 1   
    17     8     9 1   
    18     8    10 1   
    19     8    11 1   
@<TRIPOS>SUBSTRUCTURE
     1 KPC         1 TEMP              0 ****  ****    0 ROOT
