@<TRIPOS>MOLECULE
KPC
   20    19     1     0     0
SMALL
No Charge or Current Charge


@<TRIPOS>ATOM
      1 CAK         -1.1350     0.0220     5.2040 c3         1 KPC      -0.200100
      2 CAJ         -0.0380     0.0080     4.1400 c          1 KPC       0.582100
      3 OAC          1.1480    -0.0000     4.4510 o          1 KPC      -0.502100
      4 CAI         -0.5290     0.0040     2.6750 c3         1 KPC      -0.068400
      5 SAH          0.8240    -0.0050     1.3890 ss         1 KPC      -0.420000
      6 CAG         -0.1990    -0.0080    -0.1490 c3         1 KPC       0.117600
      7 CAF          0.7290    -0.0150    -1.3730 c3         1 KPC      -0.346400
      8 SAE         -0.1900    -0.0180    -2.9190 s6         1 KPC       1.321600
      9 OAD         -0.9840    -1.2530    -2.8540 o          1 KPC      -0.693867
     10 OAL          0.8640    -0.0250    -3.9440 o          1 KPC      -0.693867
     11 OAB         -0.9780     1.2210    -2.8630 o          1 KPC      -0.693867
     12 HAK1        -0.7370     0.0230     6.2250 hc         1 KPC       0.055033
     13 HAK2        -1.7940     0.8790     5.0240 hc         1 KPC       0.055033
     14 HAK3        -1.8080    -0.8260     5.0320 hc         1 KPC       0.055033
     15 HAI1        -1.1620    -0.8810     2.5390 h1         1 KPC       0.071700
     16 HAI2        -1.1570     0.8930     2.5320 h1         1 KPC       0.071700
     17 HAG1        -0.8420    -0.8980    -0.1520 h1         1 KPC       0.064700
     18 HAG2        -0.8370     0.8860    -0.1580 h1         1 KPC       0.064700
     19 HAF1         1.3610     0.8790    -1.3860 h1         1 KPC       0.079700
     20 HAF2         1.3560    -0.9120    -1.3790 h1         1 KPC       0.079700
@<TRIPOS>BOND
     1     1     2 1   
     2     1    12 1   
     3     1    13 1   
     4     1    14 1   
     5     2     3 2   
     6     2     4 1   
     7     4     5 1   
     8     4    15 1   
     9     4    16 1   
    10     5     6 1   
    11     6     7 1   
    12     6    17 1   
    13     6    18 1   
    14     7     8 1   
    15     7    19 1   
    16     7    20 1   
    17     8     9 1   
    18     8    10 1   
    19     8    11 1   
@<TRIPOS>SUBSTRUCTURE
     1 KPC         1 TEMP              0 ****  ****    0 ROOT
