@<TRIPOS>MOLECULE
KPH
   24    23     1     0     0
SMALL
bcc


@<TRIPOS>ATOM
      1 O1           2.0380     0.4190     1.6360 o          1 KPH      -0.929167
      2 P1           2.0020     0.5590     0.1040 p5         1 KPH       1.116700
      3 O2           3.3940     0.4650    -0.5500 o          1 KPH      -0.929167
      4 C1           1.1360    -0.9870    -0.4900 c3         1 KPH      -0.014700
      5 N1           1.9530    -2.1810    -0.1940 n8         1 KPH      -0.898800
      6 C2          -0.2570    -1.2050     0.0920 c3         1 KPH      -0.018400
      7 C3          -1.3230    -0.2350    -0.4010 c3         1 KPH      -0.085400
      8 C4          -2.7010    -0.5240     0.1800 c3         1 KPH      -0.070400
      9 C5          -3.7600     0.4610    -0.2910 c3         1 KPH       0.137800
     10 N2          -5.0660     0.1400     0.2690 n8         1 KPH      -0.896800
     11 O3           1.1940     1.7720    -0.3860 o          1 KPH      -0.929167
     12 H2           1.0360    -0.9360    -1.5840 h1         1 KPH       0.019700
     13 H3           2.8940    -1.9710    -0.5120 hn         1 KPH       0.319300
     14 H4           2.0510    -2.2190     0.8160 hn         1 KPH       0.319300
     15 H5          -0.5770    -2.2290    -0.1390 hc         1 KPH       0.002200
     16 H6          -0.1920    -1.1470     1.1850 hc         1 KPH       0.002200
     17 H7          -1.0150     0.7840    -0.1650 hc         1 KPH       0.060200
     18 H8          -1.3770    -0.2870    -1.4950 hc         1 KPH       0.060200
     19 H9          -3.0170    -1.5390    -0.0860 hc         1 KPH       0.024200
     20 H10         -2.6470    -0.4960     1.2750 hc         1 KPH       0.024200
     21 H11         -3.4230     1.4820    -0.0550 h1         1 KPH       0.028700
     22 H12         -3.8350     0.4110    -1.3810 h1         1 KPH       0.028700
     23 H13         -5.0340     0.2650     1.2740 hn         1 KPH       0.314800
     24 H14         -5.7500     0.8090    -0.0620 hn         1 KPH       0.314800
@<TRIPOS>BOND
     1     1     2 1   
     2     2     3 1   
     3     2     4 1   
     4     2    11 1   
     5     4     5 1   
     6     4     6 1   
     7     4    12 1   
     8     5    13 1   
     9     5    14 1   
    10     6     7 1   
    11     6    15 1   
    12     6    16 1   
    13     7     8 1   
    14     7    17 1   
    15     7    18 1   
    16     8     9 1   
    17     8    19 1   
    18     8    20 1   
    19     9    10 1   
    20     9    21 1   
    21     9    22 1   
    22    10    23 1   
    23    10    24 1   
@<TRIPOS>SUBSTRUCTURE
     1 KPH         1 TEMP              0 ****  ****    0 ROOT
