@<TRIPOS>MOLECULE
KPH
   24    23     1     0     0
SMALL
No Charge or Current Charge


@<TRIPOS>ATOM
      1 O1           1.6950     0.9510     1.4610 o          1 KPH      -0.929167
      2 P1           1.9690     0.6520     0.0250 p5         1 KPH       1.274500
      3 O2           3.4440     0.5600    -0.1890 o          1 KPH      -0.929167
      4 C1           1.1900    -1.0510    -0.4480 c3         1 KPH      -0.172500
      5 N1           1.9930    -2.3260    -0.2420 n8         1 KPH      -1.009200
      6 C2          -0.2410    -1.2590     0.1350 c3         1 KPH      -0.018400
      7 C3          -1.2980    -0.2210    -0.3180 c3         1 KPH      -0.085400
      8 C4          -2.7230    -0.5480     0.1830 c3         1 KPH      -0.070400
      9 C5          -3.7710     0.4920    -0.2690 c3         1 KPH       0.137800
     10 N2          -5.1210     0.1560     0.2220 n8         1 KPH      -1.007200
     11 O3           1.4090     1.7260    -0.8460 o          1 KPH      -0.929167
     12 H2           1.0760    -0.9590    -1.5360 h1         1 KPH       0.019700
     13 H3           2.9260    -2.1940    -0.6540 hn         1 KPH       0.374500
     14 H4           2.2010    -2.4300     0.7590 hn         1 KPH       0.374500
     15 H5          -0.6030    -2.2520    -0.1610 hc         1 KPH       0.002200
     16 H6          -0.1910    -1.2630     1.2310 hc         1 KPH       0.002200
     17 H7          -1.0200     0.7730     0.0490 hc         1 KPH       0.060200
     18 H8          -1.3050    -0.1700    -1.4140 hc         1 KPH       0.060200
     19 H9          -3.0150    -1.5390    -0.1870 hc         1 KPH       0.024200
     20 H10         -2.7140    -0.6020     1.2790 hc         1 KPH       0.024200
     21 H11         -3.4950     1.4850     0.1140 h1         1 KPH       0.028700
     22 H12         -3.7980     0.5390    -1.3670 h1         1 KPH       0.028700
     23 H13         -5.1160     0.1790     1.2490 hn         1 KPH       0.370000
     24 H14         -5.7680     0.9110    -0.0360 hn         1 KPH       0.370000
@<TRIPOS>BOND
     1     1     2 1   
     2     2     3 1   
     3     2     4 1   
     4     2    11 1   
     5     4     5 1   
     6     4     6 1   
     7     4    12 1   
     8     5    13 1   
     9     5    14 1   
    10     6     7 1   
    11     6    15 1   
    12     6    16 1   
    13     7     8 1   
    14     7    17 1   
    15     7    18 1   
    16     8     9 1   
    17     8    19 1   
    18     8    20 1   
    19     9    10 1   
    20     9    21 1   
    21     9    22 1   
    22    10    23 1   
    23    10    24 1   
@<TRIPOS>SUBSTRUCTURE
     1 KPH         1 TEMP              0 ****  ****    0 ROOT
