@<TRIPOS>MOLECULE
KPI
   29    28     1     0     0
SMALL
bcc


@<TRIPOS>ATOM
      1 OXT        -24.4210   -17.3050     4.3570 o          1 KPI      -0.847300
      2 N          -26.9960   -15.1040     3.3080 n8         1 KPI      -0.890800
      3 CA         -26.2740   -15.7900     4.3790 c3         1 KPI       0.013500
      4 CB         -27.2550   -16.0820     5.5150 c3         1 KPI      -0.044400
      5 CG         -26.6340   -16.7250     6.7480 c3         1 KPI      -0.076400
      6 CD         -27.6140   -16.8390     7.9080 c3         1 KPI      -0.067400
      7 CE         -26.9960   -17.5110     9.1240 c3         1 KPI       0.099800
      8 NZ         -27.9340   -17.5670    10.2240 n2         1 KPI      -0.583900
      9 CX1        -27.5800   -18.1220    11.3100 ce         1 KPI       0.328300
     10 C1         -26.2280   -18.7410    11.5280 c3         1 KPI      -0.173400
     11 CX2        -28.6060   -18.1700    12.4660 c          1 KPI       0.842300
     12 O1         -28.2810   -18.8610    13.4510 o          1 KPI      -0.823800
     13 O2         -29.6550   -17.5260    12.3080 o          1 KPI      -0.823800
     14 C          -25.5760   -17.0970     3.9320 c          1 KPI       0.901600
     15 O          -26.2480   -17.8500     3.1940 o          1 KPI      -0.847300
     16 HA         -25.5140   -15.1000     4.7600 h1         1 KPI       0.035700
     17 HB         -27.7350   -15.1410     5.8040 hc         1 KPI       0.021700
     18 HBA        -28.0560   -16.7270     5.1350 hc         1 KPI       0.021700
     19 HG         -26.2540   -17.7210     6.5030 hc         1 KPI       0.042200
     20 HGA        -25.7650   -16.1390     7.0660 hc         1 KPI       0.042200
     21 HD         -27.9700   -15.8430     8.1900 hc         1 KPI       0.035200
     22 HDA        -28.4970   -17.4040     7.5940 hc         1 KPI       0.035200
     23 HE         -26.6510   -18.5170     8.8460 h1         1 KPI       0.017700
     24 HEA        -26.0900   -16.9640     9.4170 h1         1 KPI       0.017700
     25 H1         -26.1340   -19.1650    12.5210 hc         1 KPI       0.027700
     26 H1A        -26.0370   -19.5290    10.7950 hc         1 KPI       0.027700
     27 H1B        -25.4380   -17.9980    11.3880 hc         1 KPI       0.027700
     28 H          -26.3330   -14.8280     2.5930 hn         1 KPI       0.318800
     29 H2         -27.5880   -15.7920     2.8550 hn         1 KPI       0.318800
@<TRIPOS>BOND
     1     1    14 1   
     2     2     3 1   
     3     2    28 1   
     4     2    29 1   
     5     3     4 1   
     6     3    14 1   
     7     3    16 1   
     8     4     5 1   
     9     4    17 1   
    10     4    18 1   
    11     5     6 1   
    12     5    19 1   
    13     5    20 1   
    14     6     7 1   
    15     6    21 1   
    16     6    22 1   
    17     7     8 1   
    18     7    23 1   
    19     7    24 1   
    20     8     9 2   
    21     9    10 1   
    22     9    11 1   
    23    10    25 1   
    24    10    26 1   
    25    10    27 1   
    26    11    12 1   
    27    11    13 1   
    28    14    15 1   
@<TRIPOS>SUBSTRUCTURE
     1 KPI         1 TEMP              0 ****  ****    0 ROOT
