@<TRIPOS>MOLECULE
KPI
   29    28     1     0     0
SMALL
No Charge or Current Charge


@<TRIPOS>ATOM
      1 OXT        -24.4170   -17.3300     3.9250 o          1 KPI      -0.847300
      2 N          -26.9540   -14.9670     3.2390 n8         1 KPI      -0.890800
      3 CA         -26.2800   -15.8120     4.2970 c3         1 KPI       0.013500
      4 CB         -27.2550   -16.0310     5.4860 c3         1 KPI      -0.044400
      5 CG         -26.6080   -16.7060     6.7190 c3         1 KPI      -0.076400
      6 CD         -27.5830   -16.8550     7.9080 c3         1 KPI      -0.067400
      7 CE         -26.9340   -17.5270     9.1360 c3         1 KPI       0.099800
      8 NZ         -27.9080   -17.6380    10.2310 n2         1 KPI      -0.583900
      9 CX1        -27.6110   -18.1730    11.3960 ce         1 KPI       0.328300
     10 C1         -26.2070   -18.7250    11.6890 c3         1 KPI      -0.173400
     11 CX2        -28.6960   -18.2580    12.5180 c          1 KPI       0.842300
     12 O1         -28.4200   -18.7590    13.6100 o          1 KPI      -0.823800
     13 O2         -29.8330   -17.8240    12.3150 o          1 KPI      -0.823800
     14 C          -25.6290   -17.1810     3.8080 c          1 KPI       0.901600
     15 O          -26.3300   -17.9890     3.2060 o          1 KPI      -0.847300
     16 HA         -25.4500   -15.2030     4.6800 h1         1 KPI       0.035700
     17 HB         -27.6640   -15.0610     5.7960 hc         1 KPI       0.021700
     18 HBA        -28.1050   -16.6390     5.1510 hc         1 KPI       0.021700
     19 HG         -26.2360   -17.7000     6.4420 hc         1 KPI       0.042200
     20 HGA        -25.7410   -16.1160     7.0390 hc         1 KPI       0.042200
     21 HD         -27.9560   -15.8640     8.1950 hc         1 KPI       0.035200
     22 HDA        -28.4510   -17.4460     7.5900 hc         1 KPI       0.035200
     23 HE         -26.5690   -18.5210     8.8430 h1         1 KPI       0.017700
     24 HEA        -26.0680   -16.9290     9.4490 h1         1 KPI       0.017700
     25 H1         -26.1110   -19.1390    12.6990 hc         1 KPI       0.027700
     26 H1A        -25.9460   -19.5300    10.9910 hc         1 KPI       0.027700
     27 H1B        -25.4470   -17.9410    11.5950 hc         1 KPI       0.027700
     28 H          -26.2810   -14.7600     2.4940 hn         1 KPI       0.318800
     29 H2         -27.6710   -15.5360     2.7750 hn         1 KPI       0.318800
@<TRIPOS>BOND
     1     1    14 1   
     2     2     3 1   
     3     2    28 1   
     4     2    29 1   
     5     3     4 1   
     6     3    14 1   
     7     3    16 1   
     8     4     5 1   
     9     4    17 1   
    10     4    18 1   
    11     5     6 1   
    12     5    19 1   
    13     5    20 1   
    14     6     7 1   
    15     6    21 1   
    16     6    22 1   
    17     7     8 1   
    18     7    23 1   
    19     7    24 1   
    20     8     9 2   
    21     9    10 1   
    22     9    11 1   
    23    10    25 1   
    24    10    26 1   
    25    10    27 1   
    26    11    12 1   
    27    11    13 1   
    28    14    15 1   
@<TRIPOS>SUBSTRUCTURE
     1 KPI         1 TEMP              0 ****  ****    0 ROOT
