@<TRIPOS>MOLECULE
KPJ
   53    55     1     0     0
SMALL
bcc


@<TRIPOS>ATOM
      1 C11         -0.5190    -0.9150     0.1490 ca         1 KPJ      -0.090300
      2 C12         -0.3580    -2.2910     0.1430 ca         1 KPJ       0.093900
      3 C13          0.8570    -2.8640    -0.1840 ca         1 KPJ       0.098900
      4 C15          1.8180    -0.6970    -0.5170 ca         1 KPJ      -0.062300
      5 C17          3.0030     0.1800    -0.8060 c3         1 KPJ      -0.029100
      6 C18          3.6970     0.6290     0.4790 c3         1 KPJ      -0.060400
      7 C03         -6.5010     1.4330     0.3300 ca         1 KPJ      -0.314300
      8 C04         -5.7450     2.0930    -0.6170 ca         1 KPJ       0.000700
      9 C05         -4.5170     1.5320    -0.9870 ca         1 KPJ      -0.299300
     10 C06         -4.1140     0.3490    -0.3960 ca         1 KPJ       0.462600
     11 C09         -1.8450    -0.2900     0.4740 c3         1 KPJ      -0.024100
     12 C22          7.1400     0.7800     0.3410 c5         1 KPJ       0.158800
     13 C23          7.0370     1.9850     1.2690 c5         1 KPJ      -0.111400
     14 C24          5.5420     2.0040     1.5570 c5         1 KPJ      -0.095400
     15 C25          4.9000     1.5300     0.2370 c5         1 KPJ       0.170500
     16 C02         -6.0130     0.2350     0.8810 ca         1 KPJ       0.664200
     17 C14          1.9460    -2.0840    -0.5120 ca         1 KPJ      -0.146000
     18 C16          0.5870    -0.1390    -0.1880 ca         1 KPJ      -0.123000
     19 F12         -1.3880    -3.0930     0.4530 f          1 KPJ      -0.124900
     20 F13          0.9640    -4.1990    -0.1760 f          1 KPJ      -0.128900
     21 N01         -4.8470    -0.2880     0.5200 nb         1 KPJ      -0.749000
     22 N21          5.9620     0.8460    -0.5220 n3         1 KPJ      -0.722600
     23 H1           3.7190    -0.3560    -1.4330 hc         1 KPJ       0.055200
     24 H2           2.6790     1.0590    -1.3700 hc         1 KPJ       0.055200
     25 H3           2.9790     1.1610     1.1120 hc         1 KPJ       0.045700
     26 H4           4.0200    -0.2500     1.0470 hc         1 KPJ       0.045700
     27 H5          -7.4530     0.0440     2.3050 hn         1 KPJ       0.412300
     28 H6          -6.2490    -1.1370     2.3450 hn         1 KPJ       0.412300
     29 H7          -7.4570     1.8280     0.6510 ha         1 KPJ       0.137000
     30 H8          -3.8860     2.0210    -1.7190 ha         1 KPJ       0.138000
     31 H9          -2.9620    -1.3080    -1.0710 hc         1 KPJ       0.058700
     32 H10         -2.3240     0.2540    -1.5610 hc         1 KPJ       0.058700
     33 H11         -2.3280    -0.8090     1.3030 hc         1 KPJ       0.061700
     34 H12         -1.6770     0.7380     0.8020 hc         1 KPJ       0.061700
     35 H13          8.0550     0.7580    -0.2530 h1         1 KPJ       0.051200
     36 H14          7.1210    -0.1420     0.9330 h1         1 KPJ       0.051200
     37 H15          7.6520     1.8920     2.1660 hc         1 KPJ       0.048700
     38 H16          7.3450     2.8960     0.7500 hc         1 KPJ       0.048700
     39 H17          5.3080     1.2990     2.3620 hc         1 KPJ       0.049200
     40 H18          5.1670     2.9810     1.8620 hc         1 KPJ       0.049200
     41 H19          4.5660     2.4070    -0.3330 h1         1 KPJ       0.038700
     42 H20          6.5790     2.5030    -1.7460 h1         1 KPJ       0.028700
     43 H21          6.9840     0.8880    -2.3450 h1         1 KPJ       0.028700
     44 H22          5.3250     1.4560    -2.4160 h1         1 KPJ       0.028700
     45 H23         -6.4630     3.2150    -2.2950 hc         1 KPJ       0.046367
     46 H24         -7.1090     3.7560    -0.7460 hc         1 KPJ       0.046367
     47 H25         -5.4460     4.1360    -1.2020 hc         1 KPJ       0.046367
     48 H26          2.8860    -2.5590    -0.7650 ha         1 KPJ       0.155000
     49 H27          0.4780     0.9400    -0.1880 ha         1 KPJ       0.136000
     50 C26          6.2290     1.4620    -1.8060 c3         1 KPJ       0.155100
     51 C08         -2.7930    -0.2820    -0.7340 c3         1 KPJ      -0.123700
     52 C07         -6.2200     3.3690    -1.2420 c3         1 KPJ      -0.053800
     53 N02         -6.7540    -0.4650     1.7900 nv         1 KPJ      -0.940500
@<TRIPOS>BOND
     1     1     2 ar  
     2     1    11 1   
     3     1    18 ar  
     4     2     3 ar  
     5     2    19 1   
     6     3    17 ar  
     7     3    20 1   
     8     4     5 1   
     9     4    17 ar  
    10     4    18 ar  
    11     5     6 1   
    12     5    23 1   
    13     5    24 1   
    14     6    15 1   
    15     6    25 1   
    16     6    26 1   
    17     7     8 ar  
    18     7    16 ar  
    19     7    29 1   
    20     8     9 ar  
    21     8    52 1   
    22     9    10 ar  
    23     9    30 1   
    24    10    21 ar  
    25    10    51 1   
    26    11    33 1   
    27    11    34 1   
    28    11    51 1   
    29    12    13 1   
    30    12    22 1   
    31    12    35 1   
    32    12    36 1   
    33    13    14 1   
    34    13    37 1   
    35    13    38 1   
    36    14    15 1   
    37    14    39 1   
    38    14    40 1   
    39    15    22 1   
    40    15    41 1   
    41    16    21 ar  
    42    16    53 1   
    43    17    48 1   
    44    18    49 1   
    45    22    50 1   
    46    27    53 1   
    47    28    53 1   
    48    31    51 1   
    49    32    51 1   
    50    42    50 1   
    51    43    50 1   
    52    44    50 1   
    53    45    52 1   
    54    46    52 1   
    55    47    52 1   
@<TRIPOS>SUBSTRUCTURE
     1 KPJ         1 TEMP              0 ****  ****    0 ROOT
