@<TRIPOS>MOLECULE
KPJ
   53    55     1     0     0
SMALL
No Charge or Current Charge


@<TRIPOS>ATOM
      1 C11         -0.5270    -0.8960     0.4900 ca         1 KPJ      -0.090300
      2 C12         -0.2780    -2.2500     0.8020 ca         1 KPJ       0.129000
      3 C13          1.0000    -2.8010     0.5930 ca         1 KPJ       0.134000
      4 C15          1.7980    -0.6610    -0.2500 ca         1 KPJ      -0.062300
      5 C17          2.9200     0.2000    -0.8130 c3         1 KPJ      -0.029100
      6 C18          3.7390     0.8870     0.3020 c3         1 KPJ      -0.060400
      7 C03         -6.6800     1.2560     0.0560 ca         1 KPJ      -0.231000
      8 C04         -5.6420     2.1030    -0.3590 ca         1 KPJ       0.000700
      9 C05         -4.3760     1.5250    -0.5490 ca         1 KPJ      -0.216000
     10 C06         -4.2000     0.1470    -0.3160 ca         1 KPJ       0.397300
     11 C09         -1.9040    -0.2740     0.7040 c3         1 KPJ      -0.024100
     12 C22          6.7060     0.3790    -0.0700 c5         1 KPJ       0.158800
     13 C23          6.8900     1.3830     1.1090 c5         1 KPJ      -0.111400
     14 C24          5.7410     2.4260     0.9190 c5         1 KPJ      -0.095400
     15 C25          4.8690     1.8200    -0.2210 c5         1 KPJ       0.170500
     16 C02         -6.3950    -0.0970     0.2550 ca         1 KPJ       0.598900
     17 C14          2.0350    -2.0110     0.0700 ca         1 KPJ      -0.128000
     18 C16          0.5190    -0.1110    -0.0380 ca         1 KPJ      -0.105000
     19 F12         -1.2690    -3.0260     1.3040 f          1 KPJ      -0.160000
     20 F13          1.2410    -4.0980     0.8930 f          1 KPJ      -0.164000
     21 N01         -5.2070    -0.6590     0.0870 nb         1 KPJ      -0.749000
     22 N21          5.9040     1.1490    -1.0540 n3         1 KPJ      -0.722600
     23 H1           3.5900    -0.4130    -1.4280 hc         1 KPJ       0.055200
     24 H2           2.5100     0.9670    -1.4820 hc         1 KPJ       0.055200
     25 H3           3.0490     1.4800     0.9140 hc         1 KPJ       0.045700
     26 H4           4.1410     0.1170     0.9710 hc         1 KPJ       0.045700
     27 H5          -8.1220    -0.6380     1.1360 hn         1 KPJ       0.467500
     28 H6          -6.9240    -1.8700     0.9840 hn         1 KPJ       0.467500
     29 H7          -7.6830     1.6380     0.2170 ha         1 KPJ       0.119000
     30 H8          -3.5350     2.1320    -0.8710 ha         1 KPJ       0.120000
     31 H9          -2.9480    -1.5810    -0.6740 hc         1 KPJ       0.058700
     32 H10         -2.3610    -0.0990    -1.4050 hc         1 KPJ       0.058700
     33 H11         -2.3740    -0.6840     1.6070 hc         1 KPJ       0.061700
     34 H12         -1.8060     0.8040     0.8830 hc         1 KPJ       0.061700
     35 H13          7.6680     0.0410    -0.4800 h1         1 KPJ       0.051200
     36 H14          6.1670    -0.5180     0.2640 h1         1 KPJ       0.051200
     37 H15          6.8290     0.8710     2.0760 hc         1 KPJ       0.048700
     38 H16          7.8710     1.8700     1.0660 hc         1 KPJ       0.048700
     39 H17          5.1690     2.5880     1.8400 hc         1 KPJ       0.049200
     40 H18          6.1430     3.4020     0.6270 hc         1 KPJ       0.049200
     41 H19          4.3740     2.6230    -0.7870 h1         1 KPJ       0.038700
     42 H20          7.2730     2.7800    -1.3520 h1         1 KPJ       0.028700
     43 H21          7.4030     1.4640    -2.5370 h1         1 KPJ       0.028700
     44 H22          6.0360     2.5940    -2.6170 h1         1 KPJ       0.028700
     45 H23         -6.1330     3.7730    -1.6490 hc         1 KPJ       0.046367
     46 H24         -6.6980     3.9650     0.0200 hc         1 KPJ       0.046367
     47 H25         -4.9830     4.1730    -0.3610 hc         1 KPJ       0.046367
     48 H26          3.0180    -2.4480    -0.0850 ha         1 KPJ       0.137000
     49 H27          0.3370     0.9330    -0.2840 ha         1 KPJ       0.118000
     50 C26          6.6960     2.0470    -1.9310 c3         1 KPJ       0.155100
     51 C08         -2.8380    -0.5030    -0.5040 c3         1 KPJ      -0.123700
     52 C07         -5.8770     3.5840    -0.6000 c3         1 KPJ      -0.053800
     53 N02         -7.3010    -0.9900     0.6570 nv         1 KPJ      -1.050900
@<TRIPOS>BOND
     1     1     2 ar  
     2     1    11 1   
     3     1    18 ar  
     4     2     3 ar  
     5     2    19 1   
     6     3    17 ar  
     7     3    20 1   
     8     4     5 1   
     9     4    17 ar  
    10     4    18 ar  
    11     5     6 1   
    12     5    23 1   
    13     5    24 1   
    14     6    15 1   
    15     6    25 1   
    16     6    26 1   
    17     7     8 ar  
    18     7    16 ar  
    19     7    29 1   
    20     8     9 ar  
    21     8    52 1   
    22     9    10 ar  
    23     9    30 1   
    24    10    21 ar  
    25    10    51 1   
    26    11    33 1   
    27    11    34 1   
    28    11    51 1   
    29    12    13 1   
    30    12    22 1   
    31    12    35 1   
    32    12    36 1   
    33    13    14 1   
    34    13    37 1   
    35    13    38 1   
    36    14    15 1   
    37    14    39 1   
    38    14    40 1   
    39    15    22 1   
    40    15    41 1   
    41    16    21 ar  
    42    16    53 1   
    43    17    48 1   
    44    18    49 1   
    45    22    50 1   
    46    27    53 1   
    47    28    53 1   
    48    31    51 1   
    49    32    51 1   
    50    42    50 1   
    51    43    50 1   
    52    44    50 1   
    53    45    52 1   
    54    46    52 1   
    55    47    52 1   
@<TRIPOS>SUBSTRUCTURE
     1 KPJ         1 TEMP              0 ****  ****    0 ROOT
