@<TRIPOS>MOLECULE
KPK
   46    49     1     0     0
SMALL
No Charge or Current Charge


@<TRIPOS>ATOM
      1 O27          6.7900    -2.7770     0.9840 o          1 KPK      -0.737000
      2 C24          6.7250    -1.9970     0.0460 c          1 KPK       0.719000
      3 O26          7.2620    -2.1900    -1.0330 o          1 KPK      -0.737000
      4 C20          5.8610    -0.7350     0.2110 c3         1 KPK      -0.206400
      5 C16          4.4010    -1.0290    -0.2160 c3         1 KPK      -0.053400
      6 C12          3.4740     0.1950    -0.0780 c3         1 KPK       0.077600
      7 S8           1.7560    -0.2340    -0.6050 ss         1 KPK      -0.271200
      8 C3           0.9010     1.2850    -0.3650 cc         1 KPK       0.452700
      9 N7           1.4650     2.4100     0.1030 nd         1 KPK      -0.591100
     10 C5           0.3810     3.2890     0.1380 ca         1 KPK       0.083400
     11 C10          0.3810     4.6280     0.5560 ca         1 KPK      -0.057000
     12 C15         -0.8370     5.3440     0.5230 ca         1 KPK      -0.140000
     13 C11         -2.0270     4.7180     0.0810 ca         1 KPK      -0.111000
     14 C6          -2.0100     3.3710    -0.3360 ca         1 KPK      -0.112000
     15 C2          -0.7810     2.6950    -0.2950 ca         1 KPK      -0.083200
     16 N1          -0.4600     1.4090    -0.6220 na         1 KPK      -0.181600
     17 C4          -1.4250     0.4070    -1.1090 c3         1 KPK       0.146800
     18 C9          -2.2040    -0.2990    -0.0170 cc         1 KPK      -0.106400
     19 C14         -2.0760     0.0000     1.3360 cd         1 KPK      -0.129400
     20 S19         -3.0900    -0.9700     2.4240 ss         1 KPK       0.065400
     21 C17         -3.7200    -1.8100     1.0040 ca         1 KPK      -0.163000
     22 C21         -4.6780    -2.8300     1.0750 ca         1 KPK      -0.084000
     23 C25         -5.1160    -3.4320    -0.1130 ca         1 KPK      -0.103000
     24 C22         -4.5940    -3.0070    -1.3480 ca         1 KPK      -0.119000
     25 C18         -3.6280    -1.9770    -1.4180 ca         1 KPK      -0.039300
     26 C13         -3.1880    -1.3740    -0.2050 ca         1 KPK      -0.048800
     27 C23         -3.1170    -1.5760    -2.7980 c3         1 KPK      -0.050800
     28 H2           5.8110    -0.4390     1.2670 hc         1 KPK       0.020700
     29 H3           6.2140     0.0610    -0.4550 hc         1 KPK       0.020700
     30 H4           4.3900    -1.3700    -1.2590 hc         1 KPK       0.053200
     31 H5           4.0020    -1.8500     0.3940 hc         1 KPK       0.053200
     32 H6           3.4550     0.5310     0.9670 h1         1 KPK       0.069200
     33 H7           3.8460     1.0160    -0.7030 h1         1 KPK       0.069200
     34 H8           1.2980     5.1010     0.8980 ha         1 KPK       0.126000
     35 H9          -0.8600     6.3830     0.8440 ha         1 KPK       0.105000
     36 H10         -2.9590     5.2770     0.0640 ha         1 KPK       0.103000
     37 H11         -2.9200     2.8790    -0.6720 ha         1 KPK       0.114000
     38 H12         -2.1250     0.9110    -1.7840 h1         1 KPK       0.072700
     39 H13         -0.8730    -0.3370    -1.6940 h1         1 KPK       0.072700
     40 H14         -1.4310     0.7500     1.7810 h4         1 KPK       0.233000
     41 H15         -5.0770    -3.1510     2.0350 ha         1 KPK       0.119000
     42 H16         -5.8590    -4.2260    -0.0790 ha         1 KPK       0.109000
     43 H17         -4.9470    -3.4860    -2.2580 ha         1 KPK       0.107000
     44 H18         -3.3130    -0.5180    -3.0060 hc         1 KPK       0.044033
     45 H19         -2.0430    -1.7670    -2.8980 hc         1 KPK       0.044033
     46 H20         -3.6120    -2.1460    -3.5930 hc         1 KPK       0.044033
@<TRIPOS>BOND
     1     1     2 1   
     2     2     3 1   
     3     2     4 1   
     4     4     5 1   
     5     4    28 1   
     6     4    29 1   
     7     5     6 1   
     8     5    30 1   
     9     5    31 1   
    10     6     7 1   
    11     6    32 1   
    12     6    33 1   
    13     7     8 1   
    14     8     9 2   
    15     8    16 1   
    16     9    10 1   
    17    10    11 ar  
    18    10    15 ar  
    19    11    12 ar  
    20    11    34 1   
    21    12    13 ar  
    22    12    35 1   
    23    13    14 ar  
    24    13    36 1   
    25    14    15 ar  
    26    14    37 1   
    27    15    16 1   
    28    16    17 1   
    29    17    18 1   
    30    17    38 1   
    31    17    39 1   
    32    18    19 2   
    33    18    26 1   
    34    19    20 1   
    35    19    40 1   
    36    20    21 1   
    37    21    22 ar  
    38    21    26 ar  
    39    22    23 ar  
    40    22    41 1   
    41    23    24 ar  
    42    23    42 1   
    43    24    25 ar  
    44    24    43 1   
    45    25    26 ar  
    46    25    27 1   
    47    27    44 1   
    48    27    45 1   
    49    27    46 1   
@<TRIPOS>SUBSTRUCTURE
     1 KPK         1 TEMP              0 ****  ****    0 ROOT
