@<TRIPOS>MOLECULE
KPK
   46    49     1     0     0
SMALL
abcg2


@<TRIPOS>ATOM
      1 O27          6.1800    -3.0380    -0.3780 o          1 KPK      -0.737000
      2 C24          6.6290    -1.9410     0.0070 c          1 KPK       0.719000
      3 O26          7.8180    -1.6810     0.2860 o          1 KPK      -0.737000
      4 C20          5.6360    -0.7740     0.1670 c3         1 KPK      -0.206400
      5 C16          4.2000    -1.0810    -0.2270 c3         1 KPK      -0.053400
      6 C12          3.3210     0.1450    -0.0330 c3         1 KPK       0.077600
      7 S8           1.6130    -0.2790    -0.4980 ss         1 KPK      -0.271200
      8 C3           0.8350     1.2620    -0.2960 cc         1 KPK       0.452700
      9 N7           1.3890     2.3530     0.1520 nd         1 KPK      -0.591100
     10 C5           0.3820     3.2920     0.1450 ca         1 KPK       0.083400
     11 C10          0.4020     4.6330     0.5200 ca         1 KPK      -0.057000
     12 C15         -0.7780     5.3520     0.4180 ca         1 KPK      -0.140000
     13 C11         -1.9580     4.7580    -0.0460 ca         1 KPK      -0.111000
     14 C6          -1.9970     3.4250    -0.4260 ca         1 KPK      -0.112000
     15 C2          -0.8090     2.7160    -0.3240 ca         1 KPK      -0.083200
     16 N1          -0.4850     1.4110    -0.6160 na         1 KPK      -0.181600
     17 C4          -1.3880     0.4010    -1.1070 c3         1 KPK       0.146800
     18 C9          -2.0970    -0.3370    -0.0040 cc         1 KPK      -0.106400
     19 C14         -1.8780    -0.0750     1.3040 cd         1 KPK      -0.129400
     20 S19         -2.8100    -1.0490     2.3760 ss         1 KPK       0.065400
     21 C17         -3.5490    -1.8670     1.0420 ca         1 KPK      -0.163000
     22 C21         -4.4970    -2.8810     1.1500 ca         1 KPK      -0.084000
     23 C25         -4.9840    -3.4290    -0.0160 ca         1 KPK      -0.103000
     24 C22         -4.5290    -2.9720    -1.2570 ca         1 KPK      -0.119000
     25 C18         -3.5860    -1.9660    -1.3810 ca         1 KPK      -0.039300
     26 C13         -3.0750    -1.3890    -0.1960 ca         1 KPK      -0.048800
     27 C23         -3.1550    -1.5400    -2.7560 c3         1 KPK      -0.050800
     28 H2           5.6690    -0.4390     1.2100 hc         1 KPK       0.020700
     29 H3           6.0070     0.0750    -0.4170 hc         1 KPK       0.020700
     30 H4           4.1590    -1.4020    -1.2710 hc         1 KPK       0.053200
     31 H5           3.8190    -1.9120     0.3710 hc         1 KPK       0.053200
     32 H6           3.3240     0.4750     1.0060 h1         1 KPK       0.069200
     33 H7           3.6540     0.9750    -0.6560 h1         1 KPK       0.069200
     34 H8           1.3120     5.0930     0.8810 ha         1 KPK       0.126000
     35 H9          -0.7910     6.3960     0.7040 ha         1 KPK       0.105000
     36 H10         -2.8610     5.3520    -0.1060 ha         1 KPK       0.103000
     37 H11         -2.9130     2.9680    -0.7770 ha         1 KPK       0.114000
     38 H12         -2.1040     0.8950    -1.7650 h1         1 KPK       0.072700
     39 H13         -0.8240    -0.2870    -1.7390 h1         1 KPK       0.072700
     40 H14         -1.2060     0.6600     1.7220 h4         1 KPK       0.233000
     41 H15         -4.8370    -3.2240     2.1180 ha         1 KPK       0.119000
     42 H16         -5.7230    -4.2180     0.0250 ha         1 KPK       0.109000
     43 H17         -4.9280    -3.4220    -2.1580 ha         1 KPK       0.107000
     44 H18         -3.3890    -0.4930    -2.9540 hc         1 KPK       0.044033
     45 H19         -2.0860    -1.6790    -2.9130 hc         1 KPK       0.044033
     46 H20         -3.6700    -2.1310    -3.5120 hc         1 KPK       0.044033
@<TRIPOS>BOND
     1     1     2 1   
     2     2     3 1   
     3     2     4 1   
     4     4     5 1   
     5     4    28 1   
     6     4    29 1   
     7     5     6 1   
     8     5    30 1   
     9     5    31 1   
    10     6     7 1   
    11     6    32 1   
    12     6    33 1   
    13     7     8 1   
    14     8     9 2   
    15     8    16 1   
    16     9    10 1   
    17    10    11 ar  
    18    10    15 ar  
    19    11    12 ar  
    20    11    34 1   
    21    12    13 ar  
    22    12    35 1   
    23    13    14 ar  
    24    13    36 1   
    25    14    15 ar  
    26    14    37 1   
    27    15    16 1   
    28    16    17 1   
    29    17    18 1   
    30    17    38 1   
    31    17    39 1   
    32    18    19 2   
    33    18    26 1   
    34    19    20 1   
    35    19    40 1   
    36    20    21 1   
    37    21    22 ar  
    38    21    26 ar  
    39    22    23 ar  
    40    22    41 1   
    41    23    24 ar  
    42    23    42 1   
    43    24    25 ar  
    44    24    43 1   
    45    25    26 ar  
    46    25    27 1   
    47    27    44 1   
    48    27    45 1   
    49    27    46 1   
@<TRIPOS>SUBSTRUCTURE
     1 KPK         1 TEMP              0 ****  ****    0 ROOT
