@<TRIPOS>MOLECULE
KPL
   19    18     1     0     0
SMALL
bcc


@<TRIPOS>ATOM
      1 O2           1.7440     0.5850     0.5610 o          1 KPL      -0.587100
      2 C5           0.5990     0.1780     0.5240 c          1 KPL       0.459100
      3 C6          -0.1190    -0.1640     1.8290 c          1 KPL       0.873600
      4 O4          -0.9140     0.6900     2.2550 o          1 KPL      -0.811300
      5 O3           0.1990    -1.2560     2.3260 o          1 KPL      -0.811300
      6 C2          -0.1560     0.0110    -0.7890 c3         1 KPL      -0.152000
      7 C3          -1.0750     1.2320    -0.9550 c3         1 KPL      -0.066100
      8 C1          -1.0030    -1.2650    -0.7440 c3         1 KPL      -0.066100
      9 C4           0.8580    -0.0480    -1.9330 c3         1 KPL       0.140400
     10 O1           0.1710    -0.2140    -3.1530 oh         1 KPL      -0.609800
     11 H31         -0.5000     2.1590    -0.9890 hc         1 KPL       0.034033
     12 H32         -1.6400     1.1530    -1.8830 hc         1 KPL       0.034033
     13 H33         -1.7860     1.3060    -0.1340 hc         1 KPL       0.034033
     14 H11         -0.3880    -2.1540    -0.5940 hc         1 KPL       0.034033
     15 H12         -1.7400    -1.2240     0.0590 hc         1 KPL       0.034033
     16 H13         -1.5500    -1.3870    -1.6780 hc         1 KPL       0.034033
     17 H41          1.4510     0.8730    -1.9380 h1         1 KPL       0.022700
     18 H42          1.5540    -0.8790    -1.7570 h1         1 KPL       0.022700
     19 HO1          0.8170    -0.1740    -3.8640 ho         1 KPL       0.380000
@<TRIPOS>BOND
     1     1     2 2   
     2     2     3 1   
     3     2     6 1   
     4     3     4 1   
     5     3     5 1   
     6     6     7 1   
     7     6     8 1   
     8     6     9 1   
     9     7    11 1   
    10     7    12 1   
    11     7    13 1   
    12     8    14 1   
    13     8    15 1   
    14     8    16 1   
    15     9    10 1   
    16     9    17 1   
    17     9    18 1   
    18    10    19 1   
@<TRIPOS>SUBSTRUCTURE
     1 KPL         1 TEMP              0 ****  ****    0 ROOT
