@<TRIPOS>MOLECULE
KPL
   19    18     1     0     0
SMALL
No Charge or Current Charge


@<TRIPOS>ATOM
      1 O2           1.8950     0.1750     0.5460 o          1 KPL      -0.587100
      2 C5           0.6610     0.0790     0.5350 c          1 KPL       0.459100
      3 C6          -0.1810     0.0650     1.9170 c          1 KPL       0.663000
      4 O4          -0.5390     1.1390     2.3960 o          1 KPL      -0.706000
      5 O3          -0.3720    -1.0140     2.4750 o          1 KPL      -0.706000
      6 C2          -0.1460    -0.0320    -0.8020 c3         1 KPL      -0.152000
      7 C3          -1.1370     1.1650    -0.8920 c3         1 KPL      -0.066100
      8 C1          -0.9410    -1.3700    -0.7990 c3         1 KPL      -0.066100
      9 C4           0.8530     0.0010    -2.0020 c3         1 KPL       0.163600
     10 O1           0.1730    -0.0980    -3.2610 oh         1 KPL      -0.672000
     11 H31         -0.5970     2.1190    -0.8590 hc         1 KPL       0.034033
     12 H32         -1.7160     1.1350    -1.8230 hc         1 KPL       0.034033
     13 H33         -1.8550     1.1520    -0.0640 hc         1 KPL       0.034033
     14 H11         -0.2620    -2.2260    -0.7000 hc         1 KPL       0.034033
     15 H12         -1.6580    -1.4070     0.0300 hc         1 KPL       0.034033
     16 H13         -1.5120    -1.4970    -1.7270 hc         1 KPL       0.034033
     17 H41          1.4290     0.9360    -1.9670 h1         1 KPL       0.022700
     18 H42          1.5650    -0.8290    -1.9020 h1         1 KPL       0.022700
     19 HO1          0.8630    -0.0700    -3.9600 ho         1 KPL       0.419000
@<TRIPOS>BOND
     1     1     2 2   
     2     2     3 1   
     3     2     6 1   
     4     3     4 1   
     5     3     5 1   
     6     6     7 1   
     7     6     8 1   
     8     6     9 1   
     9     7    11 1   
    10     7    12 1   
    11     7    13 1   
    12     8    14 1   
    13     8    15 1   
    14     8    16 1   
    15     9    10 1   
    16     9    17 1   
    17     9    18 1   
    18    10    19 1   
@<TRIPOS>SUBSTRUCTURE
     1 KPL         1 TEMP              0 ****  ****    0 ROOT
