@<TRIPOS>MOLECULE
KPM
   63    65     1     0     0
SMALL
bcc


@<TRIPOS>ATOM
      1 C1           6.4120    -3.3890    -1.3330 c3         1 KPM      -0.182100
      2 C2           5.5550    -2.7630    -0.2630 c          1 KPM       0.675100
      3 O1           5.4810    -3.2300     0.8620 o          1 KPM      -0.581100
      4 N1           4.8890    -1.6530    -0.6500 ns         1 KPM      -0.577900
      5 C3           4.1150    -0.8190     0.2340 c6         1 KPM       0.032700
      6 C4           4.8530     0.4760     0.5700 c6         1 KPM       0.337900
      7 O2           6.0070     0.1690     1.2520 oh         1 KPM      -0.563800
      8 O3           4.0350     1.2650     1.4000 os         1 KPM      -0.424600
      9 C5           2.8450     1.6880     0.7730 c6         1 KPM       0.138100
     10 C6           2.1520     2.6630     1.7030 c3         1 KPM       0.146400
     11 O4           2.9940     3.7710     1.8990 oh         1 KPM      -0.590800
     12 C7           1.9730     0.4650     0.4590 c6         1 KPM       0.129100
     13 O5           0.8180     0.8930    -0.2410 os         1 KPM      -0.389600
     14 C8          -0.3980     0.6990     0.3740 c6         1 KPM       0.339900
     15 O6          -0.8700    -0.5870     0.0500 os         1 KPM      -0.412600
     16 C9          -2.0820    -0.8500     0.7180 c6         1 KPM       0.060100
     17 C10         -2.5420    -2.2700     0.4480 c6         1 KPM       0.158400
     18 O7          -3.7870    -2.4620     1.0830 os         1 KPM      -0.417600
     19 C11         -4.7880    -1.5560     0.6860 c6         1 KPM       0.179600
     20 C12         -5.9870    -1.8060     1.5830 c3         1 KPM      -0.057100
     21 O8          -4.3700    -0.2310     0.9300 os         1 KPM      -0.401600
     22 C13         -3.1840     0.0980     0.2520 c6         1 KPM       0.130100
     23 C14         -2.7660     1.5240     0.5430 c6         1 KPM       0.145100
     24 O9          -3.7380     2.4030     0.0530 oh         1 KPM      -0.544800
     25 C15         -1.3850     1.7650    -0.1050 c6         1 KPM       0.045700
     26 N2          -1.4550     1.7840    -1.5420 ns         1 KPM      -0.539900
     27 C16         -1.5160     2.9150    -2.2680 c          1 KPM       0.681100
     28 C17         -1.5840     2.7140    -3.7610 c3         1 KPM      -0.174100
     29 O10         -1.5030     4.0320    -1.7700 o          1 KPM      -0.646100
     30 C18         -5.2250    -1.7730    -0.8030 c          1 KPM       0.902600
     31 O11         -5.0970    -2.9270    -1.2460 o          1 KPM      -0.807800
     32 O12         -5.7280    -0.7900    -1.3710 o          1 KPM      -0.807800
     33 C19          2.7580    -0.5090    -0.4080 c6         1 KPM       0.136100
     34 O13          1.9990    -1.6710    -0.5850 oh         1 KPM      -0.551800
     35 H1           6.3150    -4.4730    -1.2960 hc         1 KPM       0.058033
     36 H2           6.1690    -3.0490    -2.3380 hc         1 KPM       0.058033
     37 H3           7.4580    -3.1460    -1.1390 hc         1 KPM       0.058033
     38 H4           5.0600    -1.3040    -1.5820 hn         1 KPM       0.302500
     39 H5           3.9530    -1.3710     1.1630 h1         1 KPM       0.122700
     40 H6           5.0660     1.0300    -0.3610 h2         1 KPM       0.009700
     41 H7           6.6090     0.9190     1.2170 ho         1 KPM       0.415000
     42 H8           3.0760     2.2020    -0.1740 h1         1 KPM       0.055700
     43 H9           1.2020     2.9600     1.2470 h1         1 KPM       0.035700
     44 H10          1.9140     2.1520     2.6470 h1         1 KPM       0.035700
     45 H11          2.5280     4.4050     2.4510 ho         1 KPM       0.404000
     46 H12          1.6980    -0.0330     1.3990 h1         1 KPM       0.075700
     47 H13         -0.3090     0.7830     1.4720 h2         1 KPM       0.019700
     48 H14         -1.9500    -0.7240     1.8060 h1         1 KPM       0.036700
     49 H15         -2.6030    -2.4440    -0.6340 h1         1 KPM       0.058200
     50 H16         -1.8460    -2.9980     0.8690 h1         1 KPM       0.058200
     51 H17         -6.3550    -2.8230     1.4510 hc         1 KPM       0.036367
     52 H18         -5.7250    -1.6660     2.6340 hc         1 KPM       0.036367
     53 H19         -6.7950    -1.1190     1.3340 hc         1 KPM       0.036367
     54 H20         -3.3210    -0.0130    -0.8340 h1         1 KPM       0.087700
     55 H21         -2.6380     1.6340     1.6320 h1         1 KPM       0.025700
     56 H22         -3.4600     3.3040     0.2450 ho         1 KPM       0.394000
     57 H23         -1.0160     2.7390     0.2270 h1         1 KPM       0.068700
     58 H24         -1.4820     0.9030    -2.0310 hn         1 KPM       0.337500
     59 H25         -2.4490     3.2450    -4.1580 hc         1 KPM       0.056700
     60 H26         -0.6970     3.1480    -4.2240 hc         1 KPM       0.056700
     61 H27         -1.6520     1.6700    -4.0600 hc         1 KPM       0.056700
     62 H29          2.9460    -0.0090    -1.3750 h1         1 KPM       0.030700
     63 H30          2.4990    -2.2700    -1.1500 ho         1 KPM       0.407000
@<TRIPOS>BOND
     1     1     2 1   
     2     1    35 1   
     3     1    36 1   
     4     1    37 1   
     5     2     3 2   
     6     2     4 1   
     7     4     5 1   
     8     4    38 1   
     9     5     6 1   
    10     5    33 1   
    11     5    39 1   
    12     6     7 1   
    13     6     8 1   
    14     6    40 1   
    15     7    41 1   
    16     8     9 1   
    17     9    10 1   
    18     9    12 1   
    19     9    42 1   
    20    10    11 1   
    21    10    43 1   
    22    10    44 1   
    23    11    45 1   
    24    12    13 1   
    25    12    33 1   
    26    12    46 1   
    27    13    14 1   
    28    14    15 1   
    29    14    25 1   
    30    14    47 1   
    31    15    16 1   
    32    16    17 1   
    33    16    22 1   
    34    16    48 1   
    35    17    18 1   
    36    17    49 1   
    37    17    50 1   
    38    18    19 1   
    39    19    20 1   
    40    19    21 1   
    41    19    30 1   
    42    20    51 1   
    43    20    52 1   
    44    20    53 1   
    45    21    22 1   
    46    22    23 1   
    47    22    54 1   
    48    23    24 1   
    49    23    25 1   
    50    23    55 1   
    51    24    56 1   
    52    25    26 1   
    53    25    57 1   
    54    26    27 1   
    55    26    58 1   
    56    27    28 1   
    57    27    29 2   
    58    28    59 1   
    59    28    60 1   
    60    28    61 1   
    61    30    31 1   
    62    30    32 1   
    63    33    34 1   
    64    33    62 1   
    65    34    63 1   
@<TRIPOS>SUBSTRUCTURE
     1 KPM         1 TEMP              0 ****  ****    0 ROOT
