@<TRIPOS>MOLECULE
KPM
   63    65     1     0     0
SMALL
No Charge or Current Charge


@<TRIPOS>ATOM
      1 C1           6.8100    -3.0040    -1.9210 c3         1 KPM      -0.182100
      2 C2           5.8060    -2.6890    -0.8200 c          1 KPM       0.608100
      3 O1           5.6090    -3.4390     0.1240 o          1 KPM      -0.581100
      4 N1           5.1250    -1.5030    -0.9830 ns         1 KPM      -0.510900
      5 C3           4.1910    -0.9010     0.0080 c6         1 KPM       0.032700
      6 C4           4.8840     0.1710     0.9050 c6         1 KPM       0.384300
      7 O2           5.9040    -0.3910     1.7020 oh         1 KPM      -0.626000
      8 O3           3.9510     0.7100     1.8400 os         1 KPM      -0.471000
      9 C5           2.8430     1.4220     1.2290 c6         1 KPM       0.161300
     10 C6           2.0230     2.1090     2.3710 c3         1 KPM       0.169600
     11 O4           2.8310     2.9190     3.2490 oh         1 KPM      -0.713000
     12 C7           2.0170     0.4340     0.3400 c6         1 KPM       0.152300
     13 O5           0.9110     1.0820    -0.3470 os         1 KPM      -0.436000
     14 C8          -0.3660     1.0490     0.3180 c6         1 KPM       0.386300
     15 O6          -0.8580    -0.3080     0.2900 os         1 KPM      -0.459000
     16 C9          -2.1100    -0.4780     0.9890 c6         1 KPM       0.083300
     17 C10         -2.5780    -1.9500     1.0180 c6         1 KPM       0.181600
     18 O7          -3.8840    -2.0280     1.6440 os         1 KPM      -0.464000
     19 C11         -4.9220    -1.2400     0.9840 c6         1 KPM       0.226000
     20 C12         -6.1550    -1.2920     1.9220 c3         1 KPM      -0.057100
     21 O8          -4.4760     0.1510     0.9860 os         1 KPM      -0.448000
     22 C13         -3.2140     0.3640     0.3020 c6         1 KPM       0.153300
     23 C14         -2.7620     1.8590     0.2840 c6         1 KPM       0.168300
     24 O9          -3.7440     2.7220    -0.3200 oh         1 KPM      -0.667000
     25 C15         -1.3730     1.9840    -0.4270 c6         1 KPM       0.045700
     26 N2          -1.4220     1.6410    -1.8740 ns         1 KPM      -0.472900
     27 C16         -1.9770     2.3980    -2.8720 c          1 KPM       0.614100
     28 C17         -1.7680     1.8720    -4.2840 c3         1 KPM      -0.174100
     29 O10         -2.6140     3.4120    -2.6260 o          1 KPM      -0.646100
     30 C18         -5.3870    -1.8040    -0.4520 c          1 KPM       0.692000
     31 O11         -5.0720    -2.9550    -0.7390 o          1 KPM      -0.702500
     32 O12         -5.6110    -0.9900    -1.3430 o          1 KPM      -0.702500
     33 C19          2.9740    -0.2380    -0.6990 c6         1 KPM       0.159300
     34 O13          2.2840    -1.2070    -1.5110 oh         1 KPM      -0.674000
     35 H1           7.3210    -3.9610    -1.7660 hc         1 KPM       0.058033
     36 H2           6.3000    -2.9710    -2.8900 hc         1 KPM       0.058033
     37 H3           7.5210    -2.1740    -2.0030 hc         1 KPM       0.058033
     38 H4           5.3930    -0.9490    -1.7900 hn         1 KPM       0.302500
     39 H5           3.8140    -1.6940     0.6710 h1         1 KPM       0.122700
     40 H6           5.2980     0.9810     0.2860 h2         1 KPM       0.009700
     41 H7           5.7570     0.0270     2.5760 ho         1 KPM       0.454000
     42 H8           3.2520     2.2190     0.5900 h1         1 KPM       0.055700
     43 H9           1.2520     2.7380     1.9060 h1         1 KPM       0.035700
     44 H10          1.5100     1.3250     2.9450 h1         1 KPM       0.035700
     45 H11          2.2440     3.2340     3.9760 ho         1 KPM       0.503000
     46 H12          1.6190    -0.3630     0.9850 h1         1 KPM       0.075700
     47 H13         -0.2650     1.3780     1.3600 h2         1 KPM       0.019700
     48 H14         -1.9800    -0.1350     2.0260 h1         1 KPM       0.036700
     49 H15         -2.6260    -2.3560    -0.0020 h1         1 KPM       0.058200
     50 H16         -1.8670    -2.5580     1.5950 h1         1 KPM       0.058200
     51 H17         -6.5290    -2.3180     2.0250 hc         1 KPM       0.036367
     52 H18         -5.9120    -0.9210     2.9240 hc         1 KPM       0.036367
     53 H19         -6.9760    -0.6800     1.5280 hc         1 KPM       0.036367
     54 H20         -3.3150     0.0260    -0.7390 h1         1 KPM       0.087700
     55 H21         -2.6240     2.1700     1.3300 h1         1 KPM       0.025700
     56 H22         -3.3530     3.0210    -1.1880 ho         1 KPM       0.493000
     57 H23         -1.0140     3.0190    -0.3290 h1         1 KPM       0.068700
     58 H24         -0.8990     0.8250    -2.1730 hn         1 KPM       0.337500
     59 H25         -2.2430     2.5030    -5.0440 hc         1 KPM       0.056700
     60 H26         -0.6930     1.7560    -4.4660 hc         1 KPM       0.056700
     61 H27         -2.1260     0.8370    -4.3360 hc         1 KPM       0.056700
     62 H29          3.3640     0.5590    -1.3510 h1         1 KPM       0.030700
     63 H30          2.9790    -1.7330    -1.9670 ho         1 KPM       0.506000
@<TRIPOS>BOND
     1     1     2 1   
     2     1    35 1   
     3     1    36 1   
     4     1    37 1   
     5     2     3 2   
     6     2     4 1   
     7     4     5 1   
     8     4    38 1   
     9     5     6 1   
    10     5    33 1   
    11     5    39 1   
    12     6     7 1   
    13     6     8 1   
    14     6    40 1   
    15     7    41 1   
    16     8     9 1   
    17     9    10 1   
    18     9    12 1   
    19     9    42 1   
    20    10    11 1   
    21    10    43 1   
    22    10    44 1   
    23    11    45 1   
    24    12    13 1   
    25    12    33 1   
    26    12    46 1   
    27    13    14 1   
    28    14    15 1   
    29    14    25 1   
    30    14    47 1   
    31    15    16 1   
    32    16    17 1   
    33    16    22 1   
    34    16    48 1   
    35    17    18 1   
    36    17    49 1   
    37    17    50 1   
    38    18    19 1   
    39    19    20 1   
    40    19    21 1   
    41    19    30 1   
    42    20    51 1   
    43    20    52 1   
    44    20    53 1   
    45    21    22 1   
    46    22    23 1   
    47    22    54 1   
    48    23    24 1   
    49    23    25 1   
    50    23    55 1   
    51    24    56 1   
    52    25    26 1   
    53    25    57 1   
    54    26    27 1   
    55    26    58 1   
    56    27    28 1   
    57    27    29 2   
    58    28    59 1   
    59    28    60 1   
    60    28    61 1   
    61    30    31 1   
    62    30    32 1   
    63    33    34 1   
    64    33    62 1   
    65    34    63 1   
@<TRIPOS>SUBSTRUCTURE
     1 KPM         1 TEMP              0 ****  ****    0 ROOT
