@<TRIPOS>MOLECULE
KPN
   40    41     1     0     0
SMALL
No Charge or Current Charge


@<TRIPOS>ATOM
      1 C           -2.7020    -1.6290    -0.9870 c          1 KPN       0.703000
      2 C1           1.0950     0.8310     1.5330 ca         1 KPN       0.328900
      3 N1           2.3840     0.8050     1.1180 nb         1 KPN      -0.687000
      4 C2           0.1670    -0.1900     1.2450 ca         1 KPN      -0.070300
      5 N2           4.7310    -1.3060    -0.8050 nb         1 KPN      -0.675000
      6 C3           0.6110    -1.2910     0.4930 ca         1 KPN      -0.060000
      7 C4           1.9470    -1.3170     0.0600 ca         1 KPN      -0.119000
      8 C5           2.8300    -0.2490     0.3810 cp         1 KPN       0.260000
      9 C6           4.2860    -0.2460    -0.0740 cp         1 KPN       0.315000
     10 C7           5.1690     0.8240     0.2470 ca         1 KPN      -0.128000
     11 C8           6.5040     0.7970    -0.1880 ca         1 KPN      -0.087000
     12 C9           6.9320    -0.3080    -0.9380 ca         1 KPN      -0.176000
     13 N3          -5.8030     3.2860    -0.7570 n8         1 KPN      -0.997200
     14 O1          -2.1810    -1.1520    -1.9850 o          1 KPN      -0.720000
     15 C10          6.0170    -1.3330    -1.2240 ca         1 KPN       0.334900
     16 C11         -5.1090     2.2310     0.0190 c3         1 KPN       0.124800
     17 C12         -3.8000     1.7470    -0.6550 c3         1 KPN       0.103000
     18 N4          -3.1110     0.6760     0.1100 n          1 KPN      -0.361800
     19 C13         -3.6040    -0.7190    -0.1120 c3         1 KPN      -0.063000
     20 C14         -2.0600     1.0010     1.0110 c          1 KPN       0.618100
     21 O7          -1.7700     2.1750     1.2170 o          1 KPN      -0.659100
     22 C15         -1.2750    -0.1040     1.7490 c3         1 KPN      -0.120100
     23 O3          -2.5400    -2.7860    -0.6280 o          1 KPN      -0.720000
     24 H1           0.8030     1.6990     2.1230 h4         1 KPN       0.012100
     25 H3          -0.0570    -2.1130     0.2490 ha         1 KPN       0.137000
     26 H4           2.2990    -2.1630    -0.5240 ha         1 KPN       0.136000
     27 H7           4.8150     1.6690     0.8290 ha         1 KPN       0.146000
     28 H8           7.1870     1.6100     0.0520 ha         1 KPN       0.111000
     29 H9           7.9550    -0.3750    -1.2970 ha         1 KPN       0.113000
     30 HN1         -6.6390     3.5870    -0.2410 hn         1 KPN       0.383000
     31 HN1A        -5.2170     4.1300    -0.7770 hn         1 KPN       0.383000
     32 H10          6.3210    -2.2030    -1.8050 h4         1 KPN       0.011100
     33 H2          -4.8800     2.6250     1.0190 h1         1 KPN       0.028700
     34 H2'A        -5.7940     1.3790     0.1340 h1         1 KPN       0.028700
     35 H6          -4.0390     1.3630    -1.6550 h1         1 KPN       0.065200
     36 H3'A        -3.1250     2.6000    -0.7970 h1         1 KPN       0.065200
     37 H5          -4.5830    -0.6760    -0.6070 h1         1 KPN       0.032700
     38 H5'A        -3.7700    -1.2030     0.8580 h1         1 KPN       0.032700
     39 H11         -1.7560    -1.0800     1.6600 hc         1 KPN       0.085200
     40 H8'A        -1.2540     0.1620     2.8120 hc         1 KPN       0.085200
@<TRIPOS>BOND
     1     1    14 1   
     2     1    19 1   
     3     1    23 1   
     4     2     3 ar  
     5     2     4 ar  
     6     2    24 1   
     7     3     8 ar  
     8     4     6 ar  
     9     4    22 1   
    10     5     9 ar  
    11     5    15 ar  
    12     6     7 ar  
    13     6    25 1   
    14     7     8 ar  
    15     7    26 1   
    16     8     9 1   
    17     9    10 ar  
    18    10    11 ar  
    19    10    27 1   
    20    11    12 ar  
    21    11    28 1   
    22    12    15 ar  
    23    12    29 1   
    24    13    16 1   
    25    13    30 1   
    26    13    31 1   
    27    15    32 1   
    28    16    17 1   
    29    16    33 1   
    30    16    34 1   
    31    17    18 1   
    32    17    35 1   
    33    17    36 1   
    34    18    19 1   
    35    18    20 1   
    36    19    37 1   
    37    19    38 1   
    38    20    21 2   
    39    20    22 1   
    40    22    39 1   
    41    22    40 1   
@<TRIPOS>SUBSTRUCTURE
     1 KPN         1 TEMP              0 ****  ****    0 ROOT
