@<TRIPOS>MOLECULE
KPN
   40    41     1     0     0
SMALL
bcc


@<TRIPOS>ATOM
      1 C           -4.3850    -1.8640     0.3480 c          1 KPN       0.913600
      2 C1           1.0900     0.0450     1.4050 ca         1 KPN       0.394200
      3 N1           2.3960     0.2070     1.2590 nb         1 KPN      -0.687000
      4 C2           0.2660    -0.5420     0.4530 ca         1 KPN      -0.135600
      5 N2           5.0120    -0.4120    -1.1130 nb         1 KPN      -0.675000
      6 C3           0.8780    -0.9820    -0.7150 ca         1 KPN      -0.078000
      7 C4           2.2410    -0.8220    -0.8800 ca         1 KPN      -0.202300
      8 C5           2.9740    -0.2130     0.1380 cp         1 KPN       0.325300
      9 C6           4.4380    -0.0080     0.0180 cp         1 KPN       0.380300
     10 C7           5.1680     0.5810     1.0490 ca         1 KPN      -0.211300
     11 C8           6.5330     0.7490     0.8870 ca         1 KPN      -0.105000
     12 C9           7.1280     0.3290    -0.2930 ca         1 KPN      -0.259300
     13 N3          -5.2620     3.4510    -0.8290 n8         1 KPN      -0.886800
     14 O1          -3.9330    -2.0930    -0.7860 o          1 KPN      -0.825300
     15 C10          6.3180    -0.2460    -1.2610 ca         1 KPN       0.400200
     16 C11         -4.3740     2.6390    -0.0130 c3         1 KPN       0.124800
     17 C12         -4.1500     1.2880    -0.6790 c3         1 KPN       0.103000
     18 N4          -3.3240     0.4100     0.1310 n          1 KPN      -0.428800
     19 C13         -4.0290    -0.5060     0.9990 c3         1 KPN      -0.063000
     20 C14         -2.0020     0.3430    -0.1110 c          1 KPN       0.685100
     21 O7          -1.4460     1.0640    -0.9310 o          1 KPN      -0.659100
     22 C15         -1.2040    -0.6810     0.6860 c3         1 KPN      -0.120100
     23 O3          -5.0940    -2.6060     1.0540 o          1 KPN      -0.825300
     24 H1           0.6650     0.4010     2.3380 h4         1 KPN       0.012100
     25 H3           0.2940    -1.4580    -1.4940 ha         1 KPN       0.155000
     26 H4           2.7340    -1.1610    -1.7780 ha         1 KPN       0.154000
     27 H7           4.6720     0.9000     1.9540 ha         1 KPN       0.164000
     28 H8           7.1230     1.2030     1.6720 ha         1 KPN       0.129000
     29 H9           8.1900     0.4410    -0.4640 ha         1 KPN       0.131000
     30 HN1         -5.4790     4.3090    -0.3410 hn         1 KPN       0.327800
     31 HN1A        -4.7780     3.7320    -1.6730 hn         1 KPN       0.327800
     32 H10          6.7430    -0.5880    -2.1980 h4         1 KPN       0.011100
     33 H2          -3.3980     3.1030     0.1840 h1         1 KPN       0.028700
     34 H2'A        -4.8450     2.4840     0.9610 h1         1 KPN       0.028700
     35 H6          -5.1120     0.8000    -0.8460 h1         1 KPN       0.065200
     36 H3'A        -3.6910     1.4270    -1.6580 h1         1 KPN       0.065200
     37 H5          -4.9490    -0.0170     1.3250 h1         1 KPN       0.032700
     38 H5'A        -3.4650    -0.6870     1.9160 h1         1 KPN       0.032700
     39 H11         -1.5440    -1.6790     0.3970 hc         1 KPN       0.085200
     40 H8'A        -1.4150    -0.5860     1.7540 hc         1 KPN       0.085200
@<TRIPOS>BOND
     1     1    14 1   
     2     1    19 1   
     3     1    23 1   
     4     2     3 ar  
     5     2     4 ar  
     6     2    24 1   
     7     3     8 ar  
     8     4     6 ar  
     9     4    22 1   
    10     5     9 ar  
    11     5    15 ar  
    12     6     7 ar  
    13     6    25 1   
    14     7     8 ar  
    15     7    26 1   
    16     8     9 1   
    17     9    10 ar  
    18    10    11 ar  
    19    10    27 1   
    20    11    12 ar  
    21    11    28 1   
    22    12    15 ar  
    23    12    29 1   
    24    13    16 1   
    25    13    30 1   
    26    13    31 1   
    27    15    32 1   
    28    16    17 1   
    29    16    33 1   
    30    16    34 1   
    31    17    18 1   
    32    17    35 1   
    33    17    36 1   
    34    18    19 1   
    35    18    20 1   
    36    19    37 1   
    37    19    38 1   
    38    20    21 2   
    39    20    22 1   
    40    22    39 1   
    41    22    40 1   
@<TRIPOS>SUBSTRUCTURE
     1 KPN         1 TEMP              0 ****  ****    0 ROOT
