@<TRIPOS>MOLECULE
KPO
  100   103     1     0     0
SMALL
abcg2


@<TRIPOS>ATOM
      1 N1           5.4220   -10.2510     2.9380 n2         1 KPO      -0.913100
      2 C7          -1.0840   -14.7970     3.3810 c          1 KPO       0.576100
      3 C8          -1.9850   -13.8540     2.5700 c3         1 KPO       0.034700
      4 N2           6.3890    -9.7700     4.9820 nv         1 KPO      -1.031200
      5 C9          -2.6770   -14.5870     1.4200 c3         1 KPO      -0.079400
      6 C1           3.7320   -12.2200     4.3280 c3         1 KPO       0.163500
      7 C5           0.9120   -14.2920     6.0870 c3         1 KPO      -0.099400
      8 C6          -0.2020   -15.2410     5.6460 c3         1 KPO       0.100000
      9 N3          -1.1320   -14.6180     4.7130 ns         1 KPO      -0.498900
     10 C4           1.7920   -13.8000     4.9400 c3         1 KPO      -0.074400
     11 C3           2.9030   -12.8810     5.4380 c3         1 KPO      -0.078400
     12 C2           5.4610   -10.4390     4.2170 c2         1 KPO       0.799100
     13 N4          -6.5010   -11.3430     0.9310 n8         1 KPO      -0.998200
     14 N            4.6330   -11.2610     4.9340 nu         1 KPO      -0.995400
     15 C            4.4620   -13.2610     3.4700 c          1 KPO       0.569100
     16 O            3.8960   -13.8180     2.5310 o          1 KPO      -0.588100
     17 C10         -3.4930   -13.6780     0.5020 c3         1 KPO      -0.070400
     18 C11         -4.6320   -12.9320     1.1940 c3         1 KPO      -0.086400
     19 C12         -5.4310   -12.0680     0.2290 c3         1 KPO       0.152800
     20 C13         -1.2270   -11.4990     2.4930 c          1 KPO       0.591100
     21 C14         -0.2320   -10.5230     1.8650 c3         1 KPO       0.019700
     22 C15         -0.9160    -9.1960     1.4630 c3         1 KPO      -0.034100
     23 C16          0.1020    -8.2370     0.9010 ca         1 KPO      -0.094300
     24 C17          0.9540    -7.5520     1.7340 ca         1 KPO      -0.072000
     25 C18          2.0230    -6.7770     1.2270 ca         1 KPO      -0.028000
     26 C19          2.9350    -6.1050     2.0800 ca         1 KPO      -0.087000
     27 C20          3.9880    -5.3960     1.5610 ca         1 KPO      -0.104000
     28 C21          4.1750    -5.3180     0.1620 ca         1 KPO      -0.101000
     29 C22          3.3080    -5.9530    -0.6890 ca         1 KPO      -0.101000
     30 C23          2.2120    -6.6960    -0.1850 ca         1 KPO      -0.031000
     31 C24          1.3030    -7.3790    -1.0270 ca         1 KPO      -0.100000
     32 C25          0.2820    -8.1270    -0.4990 ca         1 KPO      -0.111000
     33 C26          1.8600   -11.0460     0.6850 c          1 KPO       0.610100
     34 C27          2.4510   -11.5480    -0.6280 c3         1 KPO      -0.103100
     35 C28          3.8460   -11.0390    -0.8540 ca         1 KPO      -0.076300
     36 C29          4.9310   -11.6910    -0.2750 ca         1 KPO      -0.073000
     37 C30          6.2230   -11.1870    -0.3910 ca         1 KPO      -0.097300
     38 C31          7.3930   -11.8910     0.2600 c3         1 KPO       0.146300
     39 C32          7.0830   -13.8710     1.6890 c          1 KPO       0.579100
     40 C33          6.5690   -14.4140     3.0250 c3         1 KPO       0.019000
     41 C34          6.4280   -10.0140    -1.1150 ca         1 KPO      -0.092000
     42 C35          5.3540    -9.3640    -1.7150 ca         1 KPO      -0.108000
     43 C36          4.0660    -9.8700    -1.5810 ca         1 KPO      -0.094000
     44 N5          -1.1400   -12.7740     2.0800 ns         1 KPO      -0.496900
     45 N6           0.5060   -11.0910     0.7530 ns         1 KPO      -0.515900
     46 N7           7.0270   -12.5440     1.5060 ns         1 KPO      -0.496900
     47 N8           5.7420   -13.5200     3.8000 ns         1 KPO      -0.508900
     48 O2           2.5550   -10.6700     1.6210 o          1 KPO      -0.598100
     49 H1           4.6000   -10.6700     2.5120 hn         1 KPO       0.424400
     50 H2          -2.7190   -13.3960     3.2280 h1         1 KPO       0.086700
     51 H3           6.7390   -10.2490     5.7980 hn         1 KPO       0.462000
     52 H4           7.1070    -9.3170     4.4370 hn         1 KPO       0.462000
     53 H5          -3.3230   -15.3540     1.8560 hc         1 KPO       0.061200
     54 H6          -1.9150   -15.1110     0.8390 hc         1 KPO       0.061200
     55 H7           3.0480   -11.7180     3.6410 h1         1 KPO       0.109700
     56 H8           1.5260   -14.8180     6.8250 hc         1 KPO       0.042700
     57 H9           0.4680   -13.4330     6.6020 hc         1 KPO       0.042700
     58 H10         -0.7670   -15.5790     6.5170 h1         1 KPO       0.062700
     59 H11          0.2150   -16.1170     5.1520 h1         1 KPO       0.062700
     60 H12         -1.7200   -13.8790     5.0660 hn         1 KPO       0.318500
     61 H13          1.1810   -13.2580     4.2130 hc         1 KPO       0.061700
     62 H14          2.2160   -14.6550     4.4100 hc         1 KPO       0.061700
     63 H15          3.5730   -13.4280     6.1090 hc         1 KPO       0.044700
     64 H16          2.4590   -12.0700     6.0230 hc         1 KPO       0.044700
     65 H17         -7.0050   -10.7560     0.2750 hn         1 KPO       0.392500
     66 H18         -7.1790   -12.0100     1.2870 hn         1 KPO       0.392500
     67 H20          4.7260   -11.2750     5.9360 hn         1 KPO       0.482000
     68 H21         -3.9030   -14.2910    -0.3060 hc         1 KPO       0.037700
     69 H22         -2.8260   -12.9530     0.0250 hc         1 KPO       0.037700
     70 H23         -4.2400   -12.2920     1.9900 hc         1 KPO       0.053200
     71 H24         -5.3030   -13.6550     1.6730 hc         1 KPO       0.053200
     72 H25         -5.8110   -12.7000    -0.5870 h1         1 KPO       0.024700
     73 H26         -4.7670   -11.3290    -0.2280 h1         1 KPO       0.024700
     74 H27          0.5040   -10.3080     2.6390 h1         1 KPO       0.107700
     75 H28         -1.3970    -8.7800     2.3470 hc         1 KPO       0.067200
     76 H29         -1.6910    -9.4080     0.7230 hc         1 KPO       0.067200
     77 H30          0.8390    -7.6310     2.8090 ha         1 KPO       0.115000
     78 H31          2.7900    -6.1710     3.1520 ha         1 KPO       0.115000
     79 H32          4.6830    -4.8920     2.2210 ha         1 KPO       0.113000
     80 H33          5.0130    -4.7590    -0.2360 ha         1 KPO       0.111000
     81 H34          3.4500    -5.8980    -1.7620 ha         1 KPO       0.109000
     82 H35          1.4380    -7.3180    -2.1000 ha         1 KPO       0.110000
     83 H36         -0.3890    -8.6630    -1.1590 ha         1 KPO       0.103000
     84 H37          1.7910   -11.2620    -1.4490 hc         1 KPO       0.067700
     85 H38          2.4410   -12.6410    -0.5740 hc         1 KPO       0.067700
     86 H39          4.7550   -12.5860     0.3080 ha         1 KPO       0.129000
     87 H40          7.7910   -12.6590    -0.4030 h1         1 KPO       0.064200
     88 H41          8.1940   -11.1730     0.4470 h1         1 KPO       0.064200
     89 H42          6.0240   -15.3290     2.7970 h1         1 KPO       0.081700
     90 H43          7.4410   -14.6840     3.6220 h1         1 KPO       0.081700
     91 H44          7.4270    -9.6020    -1.1970 ha         1 KPO       0.109000
     92 H45          5.5180    -8.4480    -2.2710 ha         1 KPO       0.110000
     93 H46          3.2290    -9.3470    -2.0250 ha         1 KPO       0.107000
     94 H47         -0.4310   -13.0030     1.3990 hn         1 KPO       0.336500
     95 H48          0.0000   -11.2570    -0.1050 hn         1 KPO       0.308500
     96 H49          6.5850   -11.9500     2.2010 hn         1 KPO       0.335500
     97 H50          6.1530   -13.0150     4.5700 hn         1 KPO       0.317500
     98 O4          -0.3520   -15.6140     2.8240 o          1 KPO      -0.599100
     99 O1           7.5560   -14.6640     0.8720 o          1 KPO      -0.615100
    100 O3          -2.0270   -11.1040     3.3400 o          1 KPO      -0.614100
@<TRIPOS>BOND
     1     1    12 2   
     2     1    49 1   
     3     2     3 1   
     4     2     9 1   
     5     2    98 2   
     6     3     5 1   
     7     3    44 1   
     8     3    50 1   
     9     4    12 1   
    10     4    51 1   
    11     4    52 1   
    12     5    17 1   
    13     5    53 1   
    14     5    54 1   
    15     6    11 1   
    16     6    14 1   
    17     6    15 1   
    18     6    55 1   
    19     7     8 1   
    20     7    10 1   
    21     7    56 1   
    22     7    57 1   
    23     8     9 1   
    24     8    58 1   
    25     8    59 1   
    26     9    60 1   
    27    10    11 1   
    28    10    61 1   
    29    10    62 1   
    30    11    63 1   
    31    11    64 1   
    32    12    14 1   
    33    13    19 1   
    34    13    65 1   
    35    13    66 1   
    36    14    67 1   
    37    15    16 2   
    38    15    47 1   
    39    17    18 1   
    40    17    68 1   
    41    17    69 1   
    42    18    19 1   
    43    18    70 1   
    44    18    71 1   
    45    19    72 1   
    46    19    73 1   
    47    20    21 1   
    48    20    44 1   
    49    20   100 2   
    50    21    22 1   
    51    21    45 1   
    52    21    74 1   
    53    22    23 1   
    54    22    75 1   
    55    22    76 1   
    56    23    24 ar  
    57    23    32 ar  
    58    24    25 ar  
    59    24    77 1   
    60    25    26 ar  
    61    25    30 ar  
    62    26    27 ar  
    63    26    78 1   
    64    27    28 ar  
    65    27    79 1   
    66    28    29 ar  
    67    28    80 1   
    68    29    30 ar  
    69    29    81 1   
    70    30    31 ar  
    71    31    32 ar  
    72    31    82 1   
    73    32    83 1   
    74    33    34 1   
    75    33    45 1   
    76    33    48 2   
    77    34    35 1   
    78    34    84 1   
    79    34    85 1   
    80    35    36 ar  
    81    35    43 ar  
    82    36    37 ar  
    83    36    86 1   
    84    37    38 1   
    85    37    41 ar  
    86    38    46 1   
    87    38    87 1   
    88    38    88 1   
    89    39    40 1   
    90    39    46 1   
    91    39    99 2   
    92    40    47 1   
    93    40    89 1   
    94    40    90 1   
    95    41    42 ar  
    96    41    91 1   
    97    42    43 ar  
    98    42    92 1   
    99    43    93 1   
   100    44    94 1   
   101    45    95 1   
   102    46    96 1   
   103    47    97 1   
@<TRIPOS>SUBSTRUCTURE
     1 KPO         1 TEMP              0 ****  ****    0 ROOT
