@<TRIPOS>MOLECULE
KPO
  100   103     1     0     0
SMALL
No Charge or Current Charge


@<TRIPOS>ATOM
      1 N1           5.5080   -10.6070     4.3700 n2         1 KPO      -0.913100
      2 C7          -0.9060   -14.5150     2.5360 c          1 KPO       0.576100
      3 C8          -1.9270   -13.3890     2.2150 c3         1 KPO       0.034700
      4 N2           5.9840   -10.8460     6.5220 nv         1 KPO      -1.031200
      5 C9          -3.1040   -13.9350     1.3640 c3         1 KPO      -0.079400
      6 C1           3.9400   -12.9820     4.7190 c3         1 KPO       0.163500
      7 C5           0.8940   -15.4970     5.2400 c3         1 KPO      -0.099400
      8 C6          -0.1740   -16.1410     4.3240 c3         1 KPO       0.100000
      9 N3          -1.0930   -15.1520     3.7470 ns         1 KPO      -0.498900
     10 C4           1.8990   -14.5770     4.5040 c3         1 KPO      -0.074400
     11 C3           2.9640   -13.9510     5.4380 c3         1 KPO      -0.078400
     12 C2           5.1930   -10.9500     5.5130 c2         1 KPO       0.799100
     13 N4          -7.0350   -11.3160     3.2740 n8         1 KPO      -0.998200
     14 N            4.6040   -12.1070     5.7520 nu         1 KPO      -0.995400
     15 C            4.9600   -13.7420     3.7900 c          1 KPO       0.569100
     16 O            4.6530   -14.2720     2.7310 o          1 KPO      -0.588100
     17 C10         -4.2620   -12.9380     1.1060 c3         1 KPO      -0.070400
     18 C11         -5.0810   -12.5740     2.3680 c3         1 KPO      -0.086400
     19 C12         -6.2530   -11.6210     2.0620 c3         1 KPO       0.152800
     20 C13         -1.3170   -10.9550     1.8000 c          1 KPO       0.591100
     21 C14         -0.2750   -10.0340     1.1020 c3         1 KPO       0.019700
     22 C15         -0.9360    -8.9710     0.1920 c3         1 KPO      -0.034100
     23 C16          0.0990    -8.1290    -0.5520 ca         1 KPO      -0.094300
     24 C17          0.9990    -7.3160     0.1660 ca         1 KPO      -0.072000
     25 C18          1.9880    -6.5770    -0.5090 ca         1 KPO      -0.028000
     26 C19          2.8960    -5.7790     0.2130 ca         1 KPO      -0.087000
     27 C20          3.8880    -5.0500    -0.4660 ca         1 KPO      -0.104000
     28 C21          3.9760    -5.1160    -1.8670 ca         1 KPO      -0.101000
     29 C22          3.0720    -5.9120    -2.5920 ca         1 KPO      -0.101000
     30 C23          2.0770    -6.6440    -1.9170 ca         1 KPO      -0.031000
     31 C24          1.1730    -7.4470    -2.6360 ca         1 KPO      -0.100000
     32 C25          0.1900    -8.1860    -1.9560 ca         1 KPO      -0.111000
     33 C26          1.8780   -11.3440     0.9210 c          1 KPO       0.610100
     34 C27          2.9320   -11.8550    -0.0640 c3         1 KPO      -0.103100
     35 C28          4.1670   -10.9610    -0.0150 ca         1 KPO      -0.076300
     36 C29          5.3640   -11.4390     0.5490 ca         1 KPO      -0.073000
     37 C30          6.4910   -10.6000     0.6700 ca         1 KPO      -0.097300
     38 C31          7.7830   -11.1070     1.3090 c3         1 KPO       0.146300
     39 C32          7.9570   -13.3960     2.3670 c          1 KPO       0.579100
     40 C33          7.4210   -14.3060     3.5020 c3         1 KPO       0.019000
     41 C34          6.4150    -9.2780     0.1900 ca         1 KPO      -0.092000
     42 C35          5.2290    -8.8020    -0.3940 ca         1 KPO      -0.108000
     43 C36          4.1060    -9.6390    -0.4920 ca         1 KPO      -0.094000
     44 N5          -1.2150   -12.3000     1.5130 ns         1 KPO      -0.496900
     45 N6           0.7540   -10.7940     0.3470 ns         1 KPO      -0.515900
     46 N7           7.5330   -12.0820     2.3770 ns         1 KPO      -0.496900
     47 N8           6.2680   -13.7240     4.2280 ns         1 KPO      -0.508900
     48 O2           2.0140   -11.4140     2.1330 o          1 KPO      -0.598100
     49 H1           4.8130   -11.0380     3.7580 hn         1 KPO       0.424400
     50 H2          -2.3070   -13.0150     3.1740 h1         1 KPO       0.086700
     51 H3           6.1350   -11.7630     6.9030 hn         1 KPO       0.462000
     52 H4           6.8320   -10.3810     6.2370 hn         1 KPO       0.462000
     53 H5          -3.5140   -14.8280     1.8520 hc         1 KPO       0.061200
     54 H6          -2.7100   -14.2710     0.3960 hc         1 KPO       0.061200
     55 H7           3.3370   -12.3530     4.0520 h1         1 KPO       0.109700
     56 H8           1.4520   -16.3010     5.7370 hc         1 KPO       0.042700
     57 H9           0.3910   -14.9290     6.0320 hc         1 KPO       0.042700
     58 H10         -0.7660   -16.8540     4.9130 h1         1 KPO       0.062700
     59 H11          0.3170   -16.7050     3.5200 h1         1 KPO       0.062700
     60 H12         -1.8860   -14.8550     4.3040 hn         1 KPO       0.318500
     61 H13          1.3530   -13.7640     4.0110 hc         1 KPO       0.061700
     62 H14          2.3900   -15.1580     3.7140 hc         1 KPO       0.061700
     63 H15          3.5370   -14.7440     5.9350 hc         1 KPO       0.044700
     64 H16          2.4330   -13.4030     6.2260 hc         1 KPO       0.044700
     65 H17         -7.8370   -10.7280     3.0150 hn         1 KPO       0.392500
     66 H18         -7.4710   -12.1800     3.6150 hn         1 KPO       0.392500
     67 H20          4.1610   -12.1030     6.6660 hn         1 KPO       0.482000
     68 H21         -4.9410   -13.3850     0.3690 hc         1 KPO       0.037700
     69 H22         -3.8680   -12.0230     0.6460 hc         1 KPO       0.037700
     70 H23         -4.4260   -12.1030     3.1100 hc         1 KPO       0.053200
     71 H24         -5.4710   -13.4950     2.8200 hc         1 KPO       0.053200
     72 H25         -6.9210   -12.0800     1.3210 h1         1 KPO       0.024700
     73 H26         -5.8660   -10.6800     1.6470 h1         1 KPO       0.024700
     74 H27          0.2350    -9.5070     1.9190 h1         1 KPO       0.107700
     75 H28         -1.5770    -8.3230     0.8020 hc         1 KPO       0.067200
     76 H29         -1.6010    -9.4770    -0.5180 hc         1 KPO       0.067200
     77 H30          0.9370    -7.2670     1.2510 ha         1 KPO       0.115000
     78 H31          2.8360    -5.7240     1.2970 ha         1 KPO       0.115000
     79 H32          4.5890    -4.4340     0.0940 ha         1 KPO       0.113000
     80 H33          4.7440    -4.5520    -2.3910 ha         1 KPO       0.111000
     81 H34          3.1470    -5.9600    -3.6760 ha         1 KPO       0.109000
     82 H35          1.2350    -7.5050    -3.7200 ha         1 KPO       0.110000
     83 H36         -0.4950    -8.8110    -2.5250 ha         1 KPO       0.103000
     84 H37          2.5250   -11.8650    -1.0820 hc         1 KPO       0.067700
     85 H38          3.1960   -12.8800     0.2210 hc         1 KPO       0.067700
     86 H39          5.4100   -12.4650     0.9040 ha         1 KPO       0.129000
     87 H40          8.4160   -11.5510     0.5300 h1         1 KPO       0.064200
     88 H41          8.3340   -10.2620     1.7420 h1         1 KPO       0.064200
     89 H42          7.1340   -15.2700     3.0640 h1         1 KPO       0.081700
     90 H43          8.2420   -14.4720     4.2110 h1         1 KPO       0.081700
     91 H44          7.2760    -8.6180     0.2680 ha         1 KPO       0.109000
     92 H45          5.1760    -7.7800    -0.7630 ha         1 KPO       0.110000
     93 H46          3.1870    -9.2570    -0.9310 ha         1 KPO       0.107000
     94 H47         -0.4720   -12.5550     0.8730 hn         1 KPO       0.336500
     95 H48          0.7340   -10.7510    -0.6660 hn         1 KPO       0.308500
     96 H49          6.9340   -11.8010     3.1480 hn         1 KPO       0.335500
     97 H50          6.4160   -13.2270     5.1010 hn         1 KPO       0.317500
     98 O4           0.0160   -14.8060     1.7840 o          1 KPO      -0.599100
     99 O1           8.6940   -13.8290     1.4900 o          1 KPO      -0.615100
    100 O3          -2.1470   -10.5230     2.5880 o          1 KPO      -0.614100
@<TRIPOS>BOND
     1     1    12 2   
     2     1    49 1   
     3     2     3 1   
     4     2     9 1   
     5     2    98 2   
     6     3     5 1   
     7     3    44 1   
     8     3    50 1   
     9     4    12 1   
    10     4    51 1   
    11     4    52 1   
    12     5    17 1   
    13     5    53 1   
    14     5    54 1   
    15     6    11 1   
    16     6    14 1   
    17     6    15 1   
    18     6    55 1   
    19     7     8 1   
    20     7    10 1   
    21     7    56 1   
    22     7    57 1   
    23     8     9 1   
    24     8    58 1   
    25     8    59 1   
    26     9    60 1   
    27    10    11 1   
    28    10    61 1   
    29    10    62 1   
    30    11    63 1   
    31    11    64 1   
    32    12    14 1   
    33    13    19 1   
    34    13    65 1   
    35    13    66 1   
    36    14    67 1   
    37    15    16 2   
    38    15    47 1   
    39    17    18 1   
    40    17    68 1   
    41    17    69 1   
    42    18    19 1   
    43    18    70 1   
    44    18    71 1   
    45    19    72 1   
    46    19    73 1   
    47    20    21 1   
    48    20    44 1   
    49    20   100 2   
    50    21    22 1   
    51    21    45 1   
    52    21    74 1   
    53    22    23 1   
    54    22    75 1   
    55    22    76 1   
    56    23    24 ar  
    57    23    32 ar  
    58    24    25 ar  
    59    24    77 1   
    60    25    26 ar  
    61    25    30 ar  
    62    26    27 ar  
    63    26    78 1   
    64    27    28 ar  
    65    27    79 1   
    66    28    29 ar  
    67    28    80 1   
    68    29    30 ar  
    69    29    81 1   
    70    30    31 ar  
    71    31    32 ar  
    72    31    82 1   
    73    32    83 1   
    74    33    34 1   
    75    33    45 1   
    76    33    48 2   
    77    34    35 1   
    78    34    84 1   
    79    34    85 1   
    80    35    36 ar  
    81    35    43 ar  
    82    36    37 ar  
    83    36    86 1   
    84    37    38 1   
    85    37    41 ar  
    86    38    46 1   
    87    38    87 1   
    88    38    88 1   
    89    39    40 1   
    90    39    46 1   
    91    39    99 2   
    92    40    47 1   
    93    40    89 1   
    94    40    90 1   
    95    41    42 ar  
    96    41    91 1   
    97    42    43 ar  
    98    42    92 1   
    99    43    93 1   
   100    44    94 1   
   101    45    95 1   
   102    46    96 1   
   103    47    97 1   
@<TRIPOS>SUBSTRUCTURE
     1 KPO         1 TEMP              0 ****  ****    0 ROOT
