@<TRIPOS>MOLECULE
KPQ
   19    18     1     0     0
SMALL
bcc


@<TRIPOS>ATOM
      1 C2          -0.3750     5.8030    84.7760 c3         1 KPQ       0.327600
      2 F8          -1.5170     7.7850    85.4070 f          1 KPQ      -0.204300
      3 C3          -0.9120     7.2040    84.3800 c3         1 KPQ       0.646900
      4 F6          -1.7620     7.1180    83.3680 f          1 KPQ      -0.204300
      5 F7           0.1100     7.9620    84.0060 f          1 KPQ      -0.204300
      6 F4           0.0960     5.2210    83.6620 f          1 KPQ      -0.184300
      7 F5           0.6380     5.9840    85.6330 f          1 KPQ      -0.184300
      8 C1          -1.4170     4.8620    85.4400 c3         1 KPQ       0.355600
      9 F2          -1.6410     5.3000    86.6890 f          1 KPQ      -0.186300
     10 F3          -2.5670     4.9280    84.7540 f          1 KPQ      -0.186300
     11 C           -0.9850     3.3760    85.5090 c3         1 KPQ       0.306400
     12 F           -1.1610     2.8110    84.3120 f          1 KPQ      -0.193300
     13 F1           0.3030     3.2740    85.8550 f          1 KPQ      -0.193300
     14 S           -1.9650     2.3920    86.7500 s6         1 KPQ       1.250900
     15 O           -1.4250     2.7430    88.0430 o          1 KPQ      -0.555800
     16 O1          -3.3490     2.6160    86.3980 o          1 KPQ      -0.555800
     17 N           -1.5290     0.8930    86.3740 n8         1 KPQ      -0.978700
     18 H1          -0.8900     0.4080    86.9890 hn         1 KPQ       0.471300
     19 H2          -2.1550     0.3270    85.8170 hn         1 KPQ       0.471300
@<TRIPOS>BOND
     1     1     3 1   
     2     1     6 1   
     3     1     7 1   
     4     1     8 1   
     5     2     3 1   
     6     3     4 1   
     7     3     5 1   
     8     8     9 1   
     9     8    10 1   
    10     8    11 1   
    11    11    12 1   
    12    11    13 1   
    13    11    14 1   
    14    14    15 2   
    15    14    16 2   
    16    14    17 1   
    17    17    18 1   
    18    17    19 1   
@<TRIPOS>SUBSTRUCTURE
     1 KPQ         1 TEMP              0 ****  ****    0 ROOT
