@<TRIPOS>MOLECULE
KPQ
   19    18     1     0     0
SMALL
No Charge or Current Charge


@<TRIPOS>ATOM
      1 C2          -0.4050     5.8280    84.6050 c3         1 KPQ       0.085000
      2 F8          -1.0470     7.8820    85.7070 f          1 KPQ      -0.083000
      3 C3          -0.9020     7.3070    84.4910 c3         1 KPQ       0.283000
      4 F6          -2.1000     7.3850    83.8650 f          1 KPQ      -0.083000
      5 F7          -0.0250     8.0610    83.7860 f          1 KPQ      -0.083000
      6 F4          -0.2280     5.3420    83.3520 f          1 KPQ      -0.063000
      7 F5           0.8290     5.8390    85.1670 f          1 KPQ      -0.063000
      8 C1          -1.3380     4.8470    85.4180 c3         1 KPQ       0.113000
      9 F2          -1.5050     5.3400    86.6690 f          1 KPQ      -0.065000
     10 F3          -2.5770     4.8650    84.8690 f          1 KPQ      -0.065000
     11 C           -0.8600     3.3520    85.5270 c3         1 KPQ      -0.047000
     12 F           -0.7240     2.8230    84.2850 f          1 KPQ      -0.072000
     13 F1           0.3750     3.3050    86.0880 f          1 KPQ      -0.072000
     14 S           -2.0180     2.3110    86.5110 s6         1 KPQ       1.220100
     15 O           -1.9980     2.6880    87.9230 o          1 KPQ      -0.485000
     16 O1          -3.2890     2.1300    85.8120 o          1 KPQ      -0.485000
     17 N           -1.3100     0.8310    86.4700 n8         1 KPQ      -1.089100
     18 H1          -1.2890     0.6090    87.4640 hn         1 KPQ       0.526500
     19 H2          -2.0920     0.2610    86.1520 hn         1 KPQ       0.526500
@<TRIPOS>BOND
     1     1     3 1   
     2     1     6 1   
     3     1     7 1   
     4     1     8 1   
     5     2     3 1   
     6     3     4 1   
     7     3     5 1   
     8     8     9 1   
     9     8    10 1   
    10     8    11 1   
    11    11    12 1   
    12    11    13 1   
    13    11    14 1   
    14    14    15 2   
    15    14    16 2   
    16    14    17 1   
    17    17    18 1   
    18    17    19 1   
@<TRIPOS>SUBSTRUCTURE
     1 KPQ         1 TEMP              0 ****  ****    0 ROOT
