@<TRIPOS>MOLECULE
KPR
   20    19     1     0     0
SMALL
bcc


@<TRIPOS>ATOM
      1 O3P          3.0340    -1.0810    -1.0770 o          1 KPR      -0.885833
      2 P            2.8570    -0.0430     0.0080 p5         1 KPR       1.242900
      3 O1P          2.6450    -0.5750     1.4110 o          1 KPR      -0.885833
      4 O2P          3.6760     1.2200    -0.1230 o          1 KPR      -0.885833
      5 O5           1.2310     0.6310    -0.4060 os         1 KPR      -0.363500
      6 C5           0.1510     0.0610     0.0240 c2         1 KPR       0.315100
      7 C4          -1.1000     0.4210    -0.3700 ce         1 KPR      -0.559200
      8 C3          -2.2710    -0.2540     0.1340 c          1 KPR       0.566300
      9 O3          -2.2480    -1.1810     0.9390 o          1 KPR      -0.662100
     10 C2          -3.6160     0.2780    -0.3720 c3         1 KPR       0.051500
     11 N2          -4.7010    -0.6820    -0.3230 n8         1 KPR      -0.897800
     12 C1          -3.9800     1.5200     0.4410 c3         1 KPR      -0.069100
     13 H3           0.2660    -0.7490     0.7440 h4         1 KPR       0.129000
     14 H4          -1.2350     1.2220    -1.0890 ha         1 KPR       0.108000
     15 H5          -3.4860     0.5840    -1.4150 h1         1 KPR       0.056700
     16 H6          -4.4680    -1.4820    -0.8990 hn         1 KPR       0.332300
     17 H7          -4.7770    -1.0480     0.6200 hn         1 KPR       0.332300
     18 H9          -3.1980     2.2780     0.3890 hc         1 KPR       0.025367
     19 H10         -4.9050     1.9590     0.0660 hc         1 KPR       0.025367
     20 H11         -4.1280     1.2640     1.4920 hc         1 KPR       0.025367
@<TRIPOS>BOND
     1     1     2 1   
     2     2     3 1   
     3     2     4 1   
     4     2     5 1   
     5     5     6 1   
     6     6     7 2   
     7     6    13 1   
     8     7     8 1   
     9     7    14 1   
    10     8     9 2   
    11     8    10 1   
    12    10    11 1   
    13    10    12 1   
    14    10    15 1   
    15    11    16 1   
    16    11    17 1   
    17    12    18 1   
    18    12    19 1   
    19    12    20 1   
@<TRIPOS>SUBSTRUCTURE
     1 KPR         1 TEMP              0 ****  ****    0 ROOT
