@<TRIPOS>MOLECULE
KPR
   20    19     1     0     0
SMALL
No Charge or Current Charge


@<TRIPOS>ATOM
      1 O3P          3.0160    -1.2190    -0.6360 o          1 KPR      -0.885833
      2 P            2.7800     0.1040     0.0060 p5         1 KPR       1.242900
      3 O1P          2.9420    -0.0190     1.4820 o          1 KPR      -0.885833
      4 O2P          3.7730     1.0850    -0.5160 o          1 KPR      -0.885833
      5 O5           1.2910     0.6160    -0.3360 os         1 KPR      -0.363500
      6 C5           0.1750    -0.0730     0.0160 c2         1 KPR       0.265100
      7 C4          -1.0590     0.3810    -0.2850 ce         1 KPR      -0.609200
      8 C3          -2.2980    -0.3460     0.0790 c          1 KPR       0.566300
      9 O3          -2.2300    -1.4110     0.6820 o          1 KPR      -0.662100
     10 C2          -3.6700     0.2900    -0.3660 c3         1 KPR       0.051500
     11 N2          -4.8530    -0.6370    -0.3710 n8         1 KPR      -1.008200
     12 C1          -3.9930     1.5480     0.4720 c3         1 KPR      -0.069100
     13 H3           0.3630    -1.0070     0.5530 h4         1 KPR       0.179000
     14 H4          -1.1820     1.3160    -0.8250 ha         1 KPR       0.158000
     15 H5          -3.5200     0.6240    -1.4020 h1         1 KPR       0.056700
     16 H6          -4.6360    -1.4480    -0.9650 hn         1 KPR       0.387500
     17 H7          -4.9370    -1.0590     0.5620 hn         1 KPR       0.387500
     18 H9          -3.1860     2.2850     0.3900 hc         1 KPR       0.025367
     19 H10         -4.9180     2.0240     0.1240 hc         1 KPR       0.025367
     20 H11         -4.1130     1.2910     1.5310 hc         1 KPR       0.025367
@<TRIPOS>BOND
     1     1     2 1   
     2     2     3 1   
     3     2     4 1   
     4     2     5 1   
     5     5     6 1   
     6     6     7 2   
     7     6    13 1   
     8     7     8 1   
     9     7    14 1   
    10     8     9 2   
    11     8    10 1   
    12    10    11 1   
    13    10    12 1   
    14    10    15 1   
    15    11    16 1   
    16    11    17 1   
    17    12    18 1   
    18    12    19 1   
    19    12    20 1   
@<TRIPOS>SUBSTRUCTURE
     1 KPR         1 TEMP              0 ****  ****    0 ROOT
