@<TRIPOS>MOLECULE
KPT
   38    43     1     0     0
SMALL
abcg2


@<TRIPOS>ATOM
      1 C36         -6.0230     0.6810     0.0140 c5         1 KPT       0.375600
      2 O4          -5.8830    -0.7280     0.1720 os         1 KPT      -0.314100
      3 O3          -4.6990     1.2180    -0.0830 os         1 KPT      -0.333100
      4 C18         -3.8630     0.1770     0.0280 ca         1 KPT       0.091100
      5 C13         -2.4670     0.1830    -0.0010 ca         1 KPT      -0.088000
      6 C14         -1.6970     1.3350    -0.1530 ca         1 KPT       0.070700
      7 C17         -4.5610    -0.9890     0.1810 ca         1 KPT       0.070100
      8 C16         -3.9300    -2.2200     0.3240 ca         1 KPT      -0.011000
      9 C15         -2.5490    -2.2510     0.3090 ca         1 KPT      -0.105000
     10 C12         -1.8030    -1.0730     0.1420 ca         1 KPT       0.017000
     11 C11         -0.3960    -1.0570     0.1160 ca         1 KPT      -0.085000
     12 C10          0.3160     0.0970    -0.0580 ca         1 KPT      -0.009000
     13 N           -0.3820     1.2830    -0.1810 na         1 KPT       0.053300
     14 C9           0.3790     2.5280    -0.3880 c6         1 KPT       0.037600
     15 C8           1.5830     2.5480     0.5230 c6         1 KPT      -0.052100
     16 C6           1.7780     0.1520    -0.0910 ca         1 KPT      -0.097000
     17 C5           2.4270     1.3430     0.2390 ca         1 KPT      -0.055300
     18 C4           3.8230     1.4090     0.2910 ca         1 KPT      -0.093000
     19 C7           2.5140    -1.0080    -0.4080 ca         1 KPT      -0.065000
     20 C3           3.8750    -0.9170    -0.3480 ca         1 KPT       0.066100
     21 C2           4.5190     0.2640     0.0010 ca         1 KPT       0.109100
     22 O2           5.8510     0.0800    -0.0450 os         1 KPT      -0.321100
     23 O1           4.7970    -1.8640    -0.6280 os         1 KPT      -0.328100
     24 C1           6.0670    -1.3000    -0.3280 c5         1 KPT       0.371600
     25 H1          -6.5730     0.9020    -0.9020 h2         1 KPT       0.093200
     26 H21         -6.5260     1.1070     0.8840 h2         1 KPT       0.093200
     27 H2          -2.1460     2.3120    -0.2570 h4         1 KPT       0.182000
     28 H3          -4.5060    -3.1270     0.4500 ha         1 KPT       0.166000
     29 H4          -2.0320    -3.1930     0.4230 ha         1 KPT       0.152000
     30 H5           0.1350    -1.9880     0.2580 ha         1 KPT       0.164000
     31 H6           0.6830     2.5570    -1.4360 h1         1 KPT       0.094200
     32 H7          -0.2900     3.3620    -0.1970 h1         1 KPT       0.094200
     33 H8           2.1410     3.4650     0.3380 hc         1 KPT       0.091200
     34 H9           1.2640     2.5710     1.5690 hc         1 KPT       0.091200
     35 H10          4.3260     2.3330     0.5450 ha         1 KPT       0.154000
     36 H11          2.0330    -1.9270    -0.7130 ha         1 KPT       0.144000
     37 H12          6.7290    -1.3990    -1.1890 h2         1 KPT       0.086700
     38 H14          6.4970    -1.7930     0.5480 h2         1 KPT       0.086700
@<TRIPOS>BOND
     1     1     2 1   
     2     1     3 1   
     3     1    25 1   
     4     1    26 1   
     5     2     7 1   
     6     3     4 1   
     7     4     5 ar  
     8     4     7 ar  
     9     5     6 ar  
    10     5    10 ar  
    11     6    13 2   
    12     6    27 1   
    13     7     8 ar  
    14     8     9 ar  
    15     8    28 1   
    16     9    10 ar  
    17     9    29 1   
    18    10    11 ar  
    19    11    12 ar  
    20    11    30 1   
    21    12    13 1   
    22    12    16 1   
    23    13    14 1   
    24    14    15 1   
    25    14    31 1   
    26    14    32 1   
    27    15    17 1   
    28    15    33 1   
    29    15    34 1   
    30    16    17 ar  
    31    16    19 ar  
    32    17    18 ar  
    33    18    21 ar  
    34    18    35 1   
    35    19    20 ar  
    36    19    36 1   
    37    20    21 ar  
    38    20    23 1   
    39    21    22 1   
    40    22    24 1   
    41    23    24 1   
    42    24    37 1   
    43    24    38 1   
@<TRIPOS>SUBSTRUCTURE
     1 KPT         1 TEMP              0 ****  ****    0 ROOT
