@<TRIPOS>MOLECULE
KPT
   38    43     1     0     0
SMALL
No Charge or Current Charge


@<TRIPOS>ATOM
      1 C36         -6.0540     0.6570     0.2870 c5         1 KPT       0.375600
      2 O4          -5.9530    -0.8060     0.1610 os         1 KPT      -0.314100
      3 O3          -4.7080     1.2490     0.1920 os         1 KPT      -0.333100
      4 C18         -3.9030     0.1570     0.1140 ca         1 KPT       0.091100
      5 C13         -2.5030     0.1670     0.0430 ca         1 KPT      -0.088000
      6 C14         -1.7700     1.3620     0.0540 ca         1 KPT       0.070700
      7 C17         -4.6120    -1.0110     0.0960 ca         1 KPT       0.070100
      8 C16         -3.9760    -2.2560     0.0080 ca         1 KPT      -0.011000
      9 C15         -2.5650    -2.2790    -0.0580 ca         1 KPT      -0.105000
     10 C12         -1.8280    -1.0680    -0.0410 ca         1 KPT       0.017000
     11 C11         -0.4210    -1.0840    -0.0860 ca         1 KPT      -0.085000
     12 C10          0.3290     0.1240    -0.0630 ca         1 KPT      -0.009000
     13 N           -0.3780     1.3490    -0.0670 na         1 KPT       0.053300
     14 C9           0.3140     2.5910    -0.4620 c6         1 KPT       0.037600
     15 C8           1.6770     2.6840     0.2390 c6         1 KPT      -0.052100
     16 C6           1.7620     0.1340    -0.0350 ca         1 KPT      -0.097000
     17 C5           2.4540     1.3790     0.0990 ca         1 KPT      -0.055300
     18 C4           3.8660     1.4270     0.1460 ca         1 KPT      -0.093000
     19 C7           2.5390    -1.0580    -0.1250 ca         1 KPT      -0.065000
     20 C3           3.9350    -0.9650    -0.0850 ca         1 KPT       0.066100
     21 C2           4.5740     0.2300     0.0460 ca         1 KPT       0.109100
     22 O2           5.9250     0.0990     0.0780 os         1 KPT      -0.321100
     23 O1           4.7990    -2.0100    -0.1550 os         1 KPT      -0.328100
     24 C1           6.1140    -1.3480    -0.1130 c5         1 KPT       0.371600
     25 H1          -6.6870     1.0530    -0.5160 h2         1 KPT       0.093200
     26 H21         -6.4890     0.9060     1.2620 h2         1 KPT       0.093200
     27 H2          -2.2670     2.3300     0.1210 h4         1 KPT       0.182000
     28 H3          -4.5550    -3.1760    -0.0070 ha         1 KPT       0.166000
     29 H4          -2.0500    -3.2350    -0.1200 ha         1 KPT       0.152000
     30 H5           0.0600    -2.0540    -0.1100 ha         1 KPT       0.164000
     31 H6           0.4570     2.5770    -1.5510 h1         1 KPT       0.094200
     32 H7          -0.2960     3.4700    -0.2110 h1         1 KPT       0.094200
     33 H8           2.2470     3.5260    -0.1770 hc         1 KPT       0.091200
     34 H9           1.5290     2.9030     1.3050 hc         1 KPT       0.091200
     35 H10          4.3970     2.3680     0.2600 ha         1 KPT       0.154000
     36 H11          2.1080    -2.0460    -0.2350 ha         1 KPT       0.144000
     37 H12          6.6350    -1.5200    -1.0620 h2         1 KPT       0.086700
     38 H14          6.7050    -1.7540     0.7160 h2         1 KPT       0.086700
@<TRIPOS>BOND
     1     1     2 1   
     2     1     3 1   
     3     1    25 1   
     4     1    26 1   
     5     2     7 1   
     6     3     4 1   
     7     4     5 ar  
     8     4     7 ar  
     9     5     6 ar  
    10     5    10 ar  
    11     6    13 2   
    12     6    27 1   
    13     7     8 ar  
    14     8     9 ar  
    15     8    28 1   
    16     9    10 ar  
    17     9    29 1   
    18    10    11 ar  
    19    11    12 ar  
    20    11    30 1   
    21    12    13 1   
    22    12    16 1   
    23    13    14 1   
    24    14    15 1   
    25    14    31 1   
    26    14    32 1   
    27    15    17 1   
    28    15    33 1   
    29    15    34 1   
    30    16    17 ar  
    31    16    19 ar  
    32    17    18 ar  
    33    18    21 ar  
    34    18    35 1   
    35    19    20 ar  
    36    19    36 1   
    37    20    21 ar  
    38    20    23 1   
    39    21    22 1   
    40    22    24 1   
    41    23    24 1   
    42    24    37 1   
    43    24    38 1   
@<TRIPOS>SUBSTRUCTURE
     1 KPT         1 TEMP              0 ****  ****    0 ROOT
