@<TRIPOS>MOLECULE
KPV
   25    25     1     0     0
SMALL
abcg2


@<TRIPOS>ATOM
      1 C1           2.3520    -0.5460     0.0090 ca         1 KPV      -0.057300
      2 C2           3.0080    -0.2390    -1.1820 ca         1 KPV      -0.109000
      3 C3           4.2720     0.3360    -1.1740 ca         1 KPV      -0.115000
      4 C4           4.9030     0.6180     0.0300 ca         1 KPV      -0.127000
      5 C5           4.2610     0.3150     1.2240 ca         1 KPV      -0.115000
      6 C6           2.9980    -0.2610     1.2100 ca         1 KPV      -0.109000
      7 C7           0.9640    -1.1210    -0.0020 c3         1 KPV      -0.041100
      8 C8          -0.1090    -0.0310     0.0060 c3         1 KPV      -0.064400
      9 C9          -1.5090    -0.6200     0.0030 c3         1 KPV      -0.192400
     10 C10         -2.6140     0.4020     0.0120 c          1 KPV       0.428100
     11 C11         -4.0800    -0.1250     0.0160 c          1 KPV       0.647000
     12 O1          -4.2040    -1.3620     0.0330 o          1 KPV      -0.698500
     13 O2          -4.9630     0.7440     0.0020 o          1 KPV      -0.698500
     14 O3          -2.3890     1.5900     0.0170 o          1 KPV      -0.565100
     15 H2           2.5260    -0.4570    -2.1280 ha         1 KPV       0.112000
     16 H3           4.7650     0.5620    -2.1110 ha         1 KPV       0.101500
     17 H4           5.8880     1.0660     0.0390 ha         1 KPV       0.100000
     18 H5           4.7460     0.5250     2.1700 ha         1 KPV       0.101500
     19 H6           2.5070    -0.4940     2.1480 ha         1 KPV       0.112000
     20 H71          0.8320    -1.7530    -0.8850 hc         1 KPV       0.042700
     21 H72          0.8260    -1.7710     0.8670 hc         1 KPV       0.042700
     22 H81          0.0290     0.6040     0.8850 hc         1 KPV       0.042700
     23 H82          0.0290     0.6170    -0.8640 hc         1 KPV       0.042700
     24 H91         -1.6540    -1.2710    -0.8670 hc         1 KPV       0.061200
     25 H92         -1.6530    -1.2820     0.8630 hc         1 KPV       0.061200
@<TRIPOS>BOND
     1     1     2 ar  
     2     1     6 ar  
     3     1     7 1   
     4     2     3 ar  
     5     2    15 1   
     6     3     4 ar  
     7     3    16 1   
     8     4     5 ar  
     9     4    17 1   
    10     5     6 ar  
    11     5    18 1   
    12     6    19 1   
    13     7     8 1   
    14     7    20 1   
    15     7    21 1   
    16     8     9 1   
    17     8    22 1   
    18     8    23 1   
    19     9    10 1   
    20     9    24 1   
    21     9    25 1   
    22    10    11 1   
    23    10    14 2   
    24    11    12 1   
    25    11    13 1   
@<TRIPOS>SUBSTRUCTURE
     1 KPV         1 TEMP              0 ****  ****    0 ROOT
