@<TRIPOS>MOLECULE
KPV
   25    25     1     0     0
SMALL
No Charge or Current Charge


@<TRIPOS>ATOM
      1 C1           2.3910    -0.5160     0.0120 ca         1 KPV      -0.057300
      2 C2           3.0470    -0.2260    -1.2000 ca         1 KPV      -0.109000
      3 C3           4.3400     0.3250    -1.1940 ca         1 KPV      -0.115000
      4 C4           4.9850     0.5900     0.0260 ca         1 KPV      -0.127000
      5 C5           4.3350     0.3050     1.2390 ca         1 KPV      -0.115000
      6 C6           3.0420    -0.2460     1.2320 ca         1 KPV      -0.109000
      7 C7           0.9880    -1.1090     0.0050 c3         1 KPV      -0.041100
      8 C8          -0.1040    -0.0180     0.0120 c3         1 KPV      -0.064400
      9 C9          -1.5390    -0.5990     0.0040 c3         1 KPV      -0.192400
     10 C10         -2.6920     0.4340     0.0110 c          1 KPV       0.428100
     11 C11         -4.2060    -0.1580     0.0070 c          1 KPV       0.647000
     12 O1          -4.3640    -1.3770    -0.0060 o          1 KPV      -0.698500
     13 O2          -5.1480     0.6330     0.0160 o          1 KPV      -0.698500
     14 O3          -2.4580     1.6470     0.0190 o          1 KPV      -0.565100
     15 H2           2.5530    -0.4270    -2.1490 ha         1 KPV       0.112000
     16 H3           4.8410     0.5460    -2.1330 ha         1 KPV       0.101500
     17 H4           5.9860     1.0170     0.0310 ha         1 KPV       0.100000
     18 H5           4.8330     0.5120     2.1840 ha         1 KPV       0.101500
     19 H6           2.5450    -0.4610     2.1750 ha         1 KPV       0.112000
     20 H71          0.8550    -1.7470    -0.8780 hc         1 KPV       0.042700
     21 H72          0.8510    -1.7610     0.8770 hc         1 KPV       0.042700
     22 H81          0.0270     0.6130     0.9000 hc         1 KPV       0.042700
     23 H82          0.0310     0.6280    -0.8650 hc         1 KPV       0.042700
     24 H91         -1.7030    -1.2720    -0.8460 hc         1 KPV       0.061200
     25 H92         -1.7060    -1.2860     0.8420 hc         1 KPV       0.061200
@<TRIPOS>BOND
     1     1     2 ar  
     2     1     6 ar  
     3     1     7 1   
     4     2     3 ar  
     5     2    15 1   
     6     3     4 ar  
     7     3    16 1   
     8     4     5 ar  
     9     4    17 1   
    10     5     6 ar  
    11     5    18 1   
    12     6    19 1   
    13     7     8 1   
    14     7    20 1   
    15     7    21 1   
    16     8     9 1   
    17     8    22 1   
    18     8    23 1   
    19     9    10 1   
    20     9    24 1   
    21     9    25 1   
    22    10    11 1   
    23    10    14 2   
    24    11    12 1   
    25    11    13 1   
@<TRIPOS>SUBSTRUCTURE
     1 KPV         1 TEMP              0 ****  ****    0 ROOT
