@<TRIPOS>MOLECULE
KPW
   60    64     1     0     0
SMALL
abcg2


@<TRIPOS>ATOM
      1 N1          -1.7340     1.2550    85.6120 n8         1 KPW      -1.002100
      2 C6           0.2410     3.7880    85.8930 ca         1 KPW       0.028500
      3 C7           0.7880     4.9470    85.3970 ca         1 KPW      -0.194000
      4 C8           0.0080     6.1060    85.2190 ca         1 KPW       0.385000
      5 N11          0.6600     7.2090    84.7230 nu         1 KPW      -0.940900
      6 C9          -1.3520     6.0510    85.5500 ca         1 KPW      -0.194000
      7 C10         -1.8980     4.8800    86.0490 ca         1 KPW       0.028500
      8 C12          0.2330     8.5030    84.5050 ca         1 KPW       0.605900
      9 C14         -1.3790    10.1020    84.5340 ca         1 KPW       0.370900
     10 C15         -0.5300    11.0790    84.0730 ca         1 KPW      -0.172000
     11 O3          -3.1560     2.5770    87.3340 o          1 KPW      -0.551500
     12 C16          0.8020    10.7340    83.8010 ca         1 KPW       0.107000
     13 C17          1.1780     9.4200    84.0200 ca         1 KPW      -0.223000
     14 C18          1.7930    11.7180    83.3740 cc         1 KPW      -0.122000
     15 C32         -1.3240    12.6560    80.5240 ca         1 KPW       0.357300
     16 N34         -0.2720    12.3290    81.2620 nb         1 KPW      -0.668000
     17 C31         -1.6040    13.9810    80.1880 ca         1 KPW      -0.162000
     18 C30         -0.7580    14.9770    80.6420 ca         1 KPW      -0.077000
     19 C29          0.3360    14.6340    81.4220 ca         1 KPW      -0.138000
     20 C28          0.5380    13.2880    81.7100 ca         1 KPW       0.321000
     21 C27          1.6810    12.8530    82.5210 cc         1 KPW       0.218000
     22 N26          2.8160    13.5410    82.4780 nd         1 KPW      -0.498800
     23 N25          3.6320    12.8820    83.2780 na         1 KPW       0.142800
     24 C24          5.0190    13.1160    83.6150 c5         1 KPW       0.082600
     25 C21          5.1860    12.2240    84.8710 c5         1 KPW      -0.070000
     26 C22          4.8670    13.0460    86.1200 c3         1 KPW      -0.086100
     27 C23          6.5870    11.6410    84.9660 c3         1 KPW      -0.086100
     28 C20          4.1040    11.1190    84.6910 c5         1 KPW      -0.013100
     29 C19          3.0970    11.7920    83.8290 cd         1 KPW      -0.144300
     30 N13         -1.0220     8.8350    84.7510 nb         1 KPW      -0.729000
     31 C5          -1.1120     3.7520    86.2220 ca         1 KPW      -0.330500
     32 S2          -1.7940     2.2840    86.9060 sy         1 KPW       1.134600
     33 O4          -0.8740     1.7240    87.8880 o          1 KPW      -0.551500
     34 H1          -1.8450     0.2880    85.9040 hn         1 KPW       0.469000
     35 H2          -2.4210     1.4840    84.9000 hn         1 KPW       0.469000
     36 H3           0.8720     2.9180    86.0200 ha         1 KPW       0.134000
     37 H4           1.8420     4.9690    85.1460 ha         1 KPW       0.134000
     38 H5           1.6360     7.0590    84.5210 hn         1 KPW       0.494000
     39 H6          -1.9790     6.9170    85.4240 ha         1 KPW       0.134000
     40 H7          -2.9500     4.8640    86.3020 ha         1 KPW       0.134000
     41 H8          -2.4130    10.3430    84.7540 h4         1 KPW       0.018100
     42 H9          -0.8890    12.0890    83.9420 ha         1 KPW       0.131000
     43 H10          2.1880     9.0910    83.8080 ha         1 KPW       0.118000
     44 H11         -1.8860    10.5920    80.4720 hc         1 KPW       0.052367
     45 H12         -3.2460    11.7140    80.3330 hc         1 KPW       0.052367
     46 H13         -2.1840    11.4600    78.9610 hc         1 KPW       0.052367
     47 H14         -2.4700    14.2190    79.5850 ha         1 KPW       0.122000
     48 H15         -0.9520    16.0140    80.3990 ha         1 KPW       0.119000
     49 H16          1.0080    15.3880    81.8060 ha         1 KPW       0.136000
     50 H17          5.6630    12.8000    82.7900 h1         1 KPW       0.073200
     51 H18          5.2030    14.1710    83.8130 h1         1 KPW       0.073200
     52 H19          4.9060    12.4210    87.0130 hc         1 KPW       0.043533
     53 H20          5.5890    13.8550    86.2450 hc         1 KPW       0.043533
     54 H21          3.8720    13.4930    86.0730 hc         1 KPW       0.043533
     55 H22          6.6750    10.9910    85.8380 hc         1 KPW       0.043533
     56 H23          6.8320    11.0490    84.0820 hc         1 KPW       0.043533
     57 H24          7.3350    12.4290    85.0630 hc         1 KPW       0.043533
     58 H25          3.6980    10.7790    85.6450 hc         1 KPW       0.069700
     59 H26          4.5130    10.2410    84.1830 hc         1 KPW       0.069700
     60 C33         -2.2070    11.5410    80.0490 c3         1 KPW      -0.146400
@<TRIPOS>BOND
     1     1    32 1   
     2     1    34 1   
     3     1    35 1   
     4     2     3 ar  
     5     2    31 ar  
     6     2    36 1   
     7     3     4 ar  
     8     3    37 1   
     9     4     5 1   
    10     4     6 ar  
    11     5     8 1   
    12     5    38 1   
    13     6     7 ar  
    14     6    39 1   
    15     7    31 ar  
    16     7    40 1   
    17     8    13 ar  
    18     8    30 ar  
    19     9    10 ar  
    20     9    30 ar  
    21     9    41 1   
    22    10    12 ar  
    23    10    42 1   
    24    11    32 2   
    25    12    13 ar  
    26    12    14 1   
    27    13    43 1   
    28    14    21 1   
    29    14    29 2   
    30    15    16 ar  
    31    15    17 ar  
    32    15    60 1   
    33    16    20 ar  
    34    17    18 ar  
    35    17    47 1   
    36    18    19 ar  
    37    18    48 1   
    38    19    20 ar  
    39    19    49 1   
    40    20    21 1   
    41    21    22 2   
    42    22    23 1   
    43    23    24 1   
    44    23    29 1   
    45    24    25 1   
    46    24    50 1   
    47    24    51 1   
    48    25    26 1   
    49    25    27 1   
    50    25    28 1   
    51    26    52 1   
    52    26    53 1   
    53    26    54 1   
    54    27    55 1   
    55    27    56 1   
    56    27    57 1   
    57    28    29 1   
    58    28    58 1   
    59    28    59 1   
    60    31    32 1   
    61    32    33 2   
    62    44    60 1   
    63    45    60 1   
    64    46    60 1   
@<TRIPOS>SUBSTRUCTURE
     1 KPW         1 TEMP              0 ****  ****    0 ROOT
