@<TRIPOS>MOLECULE
KPW
   60    64     1     0     0
SMALL
No Charge or Current Charge


@<TRIPOS>ATOM
      1 N1          -1.6960     1.2130    85.5080 n8         1 KPW      -1.002100
      2 C6           0.2020     3.8960    86.4630 ca         1 KPW       0.028500
      3 C7           0.8580     5.0600    86.0270 ca         1 KPW      -0.194000
      4 C8           0.1610     6.0560    85.3290 ca         1 KPW       0.385000
      5 N11          0.8660     7.1800    84.9000 nu         1 KPW      -0.940900
      6 C9          -1.2020     5.8670    85.0400 ca         1 KPW      -0.194000
      7 C10         -1.8700     4.7080    85.4690 ca         1 KPW       0.028500
      8 C12          0.5290     8.4870    84.6240 ca         1 KPW       0.605900
      9 C14         -1.0080    10.1750    84.8430 ca         1 KPW       0.370900
     10 C15         -0.1750    11.0850    84.1790 ca         1 KPW      -0.172000
     11 O3          -3.4520     2.4290    86.6820 o          1 KPW      -0.551500
     12 C16          1.0800    10.6620    83.7110 ca         1 KPW       0.107000
     13 C17          1.4330     9.3250    83.9650 ca         1 KPW      -0.223000
     14 C18          2.0070    11.5740    83.0230 cc         1 KPW      -0.122000
     15 C32         -1.5870    12.6830    80.8020 ca         1 KPW       0.357300
     16 N34         -0.4500    12.3010    81.4220 nb         1 KPW      -0.668000
     17 C31         -1.8010    13.9950    80.3510 ca         1 KPW      -0.162000
     18 C30         -0.7960    14.9530    80.5460 ca         1 KPW      -0.077000
     19 C29          0.3820    14.5540    81.1960 ca         1 KPW      -0.138000
     20 C28          0.5240    13.2230    81.6570 ca         1 KPW       0.321000
     21 C27          1.8040    12.7790    82.2740 cc         1 KPW       0.218000
     22 N26          2.9190    13.5120    82.1790 nd         1 KPW      -0.498800
     23 N25          3.8510    12.7070    82.8010 na         1 KPW       0.142800
     24 C24          5.0410    13.1410    83.4750 c5         1 KPW       0.082600
     25 C21          5.1010    12.2350    84.7960 c5         1 KPW      -0.070000
     26 C22          4.6320    13.0500    86.0300 c3         1 KPW      -0.086100
     27 C23          6.5340    11.7180    85.0790 c3         1 KPW      -0.086100
     28 C20          4.0710    11.0330    84.4900 c5         1 KPW      -0.013100
     29 C19          3.3420    11.5750    83.2990 cd         1 KPW      -0.144300
     30 N13         -0.6630     8.8900    85.0700 nb         1 KPW      -0.729000
     31 C5          -1.1670     3.7190    86.1860 ca         1 KPW      -0.330500
     32 S2          -2.0050     2.2380    86.7400 sy         1 KPW       1.134600
     33 O4          -1.3220     1.6630    87.8990 o          1 KPW      -0.551500
     34 H1          -2.6370     0.8980    85.2810 hn         1 KPW       0.469000
     35 H2          -1.4630     1.8520    84.7520 hn         1 KPW       0.469000
     36 H3           0.7610     3.1380    87.0100 ha         1 KPW       0.134000
     37 H4           1.9140     5.1860    86.2450 ha         1 KPW       0.134000
     38 H5           1.8670     7.0270    84.8370 hn         1 KPW       0.494000
     39 H6          -1.7490     6.6100    84.4710 ha         1 KPW       0.134000
     40 H7          -2.9270     4.5860    85.2380 ha         1 KPW       0.134000
     41 H8          -1.9810    10.4880    85.2190 h4         1 KPW       0.018100
     42 H9          -0.5020    12.1120    84.0600 ha         1 KPW       0.131000
     43 H10          2.3860     8.9330    83.6270 ha         1 KPW       0.118000
     44 H11         -2.6630    10.9140    81.4550 hc         1 KPW       0.052367
     45 H12         -3.6320    12.0330    80.4870 hc         1 KPW       0.052367
     46 H13         -2.4130    11.0140    79.7020 hc         1 KPW       0.052367
     47 H14         -2.7280    14.2610    79.8510 ha         1 KPW       0.122000
     48 H15         -0.9240    15.9760    80.1980 ha         1 KPW       0.119000
     49 H16          1.1780    15.2780    81.3500 ha         1 KPW       0.136000
     50 H17          5.9050    12.9630    82.8220 h1         1 KPW       0.073200
     51 H18          5.0000    14.2140    83.7010 h1         1 KPW       0.073200
     52 H19          4.6210    12.4320    86.9370 hc         1 KPW       0.043533
     53 H20          5.2910    13.9060    86.2190 hc         1 KPW       0.043533
     54 H21          3.6170    13.4400    85.8840 hc         1 KPW       0.043533
     55 H22          6.5570    11.0700    85.9640 hc         1 KPW       0.043533
     56 H23          6.9190    11.1350    84.2330 hc         1 KPW       0.043533
     57 H24          7.2310    12.5470    85.2520 hc         1 KPW       0.043533
     58 H25          3.4170    10.8200    85.3440 hc         1 KPW       0.069700
     59 H26          4.5910    10.1000    84.2450 hc         1 KPW       0.069700
     60 C33         -2.6310    11.6020    80.6010 c3         1 KPW      -0.146400
@<TRIPOS>BOND
     1     1    32 1   
     2     1    34 1   
     3     1    35 1   
     4     2     3 ar  
     5     2    31 ar  
     6     2    36 1   
     7     3     4 ar  
     8     3    37 1   
     9     4     5 1   
    10     4     6 ar  
    11     5     8 1   
    12     5    38 1   
    13     6     7 ar  
    14     6    39 1   
    15     7    31 ar  
    16     7    40 1   
    17     8    13 ar  
    18     8    30 ar  
    19     9    10 ar  
    20     9    30 ar  
    21     9    41 1   
    22    10    12 ar  
    23    10    42 1   
    24    11    32 2   
    25    12    13 ar  
    26    12    14 1   
    27    13    43 1   
    28    14    21 1   
    29    14    29 2   
    30    15    16 ar  
    31    15    17 ar  
    32    15    60 1   
    33    16    20 ar  
    34    17    18 ar  
    35    17    47 1   
    36    18    19 ar  
    37    18    48 1   
    38    19    20 ar  
    39    19    49 1   
    40    20    21 1   
    41    21    22 2   
    42    22    23 1   
    43    23    24 1   
    44    23    29 1   
    45    24    25 1   
    46    24    50 1   
    47    24    51 1   
    48    25    26 1   
    49    25    27 1   
    50    25    28 1   
    51    26    52 1   
    52    26    53 1   
    53    26    54 1   
    54    27    55 1   
    55    27    56 1   
    56    27    57 1   
    57    28    29 1   
    58    28    58 1   
    59    28    59 1   
    60    31    32 1   
    61    32    33 2   
    62    44    60 1   
    63    45    60 1   
    64    46    60 1   
@<TRIPOS>SUBSTRUCTURE
     1 KPW         1 TEMP              0 ****  ****    0 ROOT
