@<TRIPOS>MOLECULE
KPX
   79    82     1     0     0
SMALL
No Charge or Current Charge


@<TRIPOS>ATOM
      1 O2B        -21.7820    37.8030    15.2570 o          1 KPX      -0.725500
      2 NB         -18.2600    36.8060    17.5470 nc         1 KPX      -0.618300
      3 ND         -14.6410    38.1750    12.1910 ns         1 KPX      -0.495900
      4 C1A        -17.9980    34.3160    22.2820 c          1 KPX       0.563000
      5 C1B        -18.9160    35.9810    18.3490 cd         1 KPX       0.432900
      6 C1C        -17.5030    39.2280    15.9880 cc         1 KPX      -0.203800
      7 C1D        -14.2790    37.3900    13.3790 c5         1 KPX       0.130900
      8 C2A        -17.0820    33.1620    21.8370 c5         1 KPX      -0.159700
      9 C2B        -20.1670    36.5150    18.7850 cd         1 KPX      -0.307800
     10 C2C        -17.1930    40.3870    15.3140 cd         1 KPX       0.024200
     11 C2D        -12.9300    36.7940    12.9320 c2         1 KPX      -0.093400
     12 C3A        -17.4940    32.8930    20.3420 c5         1 KPX      -0.023500
     13 C3B        -20.2500    37.7530    18.2070 cc         1 KPX       0.004800
     14 C3C        -15.9110    40.2100    14.7210 cd         1 KPX      -0.172300
     15 C3D        -12.6000    37.2830    11.7180 ce         1 KPX      -0.152200
     16 C4A        -18.1360    34.2110    19.9150 c2         1 KPX      -0.016600
     17 C4B        -19.0530    37.9290    17.4370 cc         1 KPX      -0.018400
     18 C4C        -15.4470    38.9530    15.0290 cc         1 KPX      -0.178300
     19 C4D        -13.6760    38.1770    11.2380 c          1 KPX       0.565200
     20 CAA        -18.4630    31.6870    20.2060 c3         1 KPX      -0.063400
     21 CAB        -21.3610    38.7710    18.3560 c3         1 KPX      -0.013200
     22 CAC        -18.0190    41.5940    15.2390 cf         1 KPX      -0.220200
     23 CAD        -11.3440    36.9650    10.9990 ce         1 KPX      -0.161000
     24 CBA        -18.8920    31.3490    18.7640 c3         1 KPX      -0.088100
     25 CBB        -22.5400    38.5910    17.3670 c3         1 KPX      -0.202400
     26 CBC        -18.3560    42.2880    14.1100 ce         1 KPX      -0.214200
     27 CBD        -11.0140    37.3700     9.7530 c2         1 KPX      -0.298000
     28 CGB        -22.0860    38.7890    15.9110 c          1 KPX       0.704000
     29 CGC        -19.2130    43.5120    14.0490 c          1 KPX       0.694200
     30 CHB        -18.6710    39.0160    16.6820 cf         1 KPX       0.093800
     31 CHC        -14.1560    38.2670    14.6470 c3         1 KPX      -0.005100
     32 CMC        -15.1890    41.2500    13.8950 c3         1 KPX      -0.009800
     33 CMD        -12.1470    35.8400    13.8150 c3         1 KPX      -0.047900
     34 NA         -18.4430    34.8420    21.1120 ns         1 KPX      -0.406100
     35 NC         -16.4290    38.3640    15.8200 na         1 KPX      -0.083000
     36 O1B        -22.0300    39.9300    15.4810 o          1 KPX      -0.725500
     37 O1C        -19.4170    44.0060    12.9510 o          1 KPX      -0.723000
     38 O2C        -19.6590    43.9740    15.0880 o          1 KPX      -0.723000
     39 H1D1       -15.0160    36.5970    13.5700 h1         1 KPX       0.079700
     40 H2A1       -17.2340    32.3070    22.5050 hc         1 KPX       0.074700
     41 H3A1       -16.6170    32.6680    19.7230 hc         1 KPX       0.056700
     42 HAA1       -19.3650    31.8650    20.8050 hc         1 KPX       0.042200
     43 HAA2       -17.9850    30.7960    20.6310 hc         1 KPX       0.042200
     44 HAB2       -20.9640    39.7890    18.2670 hc         1 KPX       0.032700
     45 HAB1       -21.7600    38.7090    19.3760 hc         1 KPX       0.032700
     46 HAC1       -18.4300    41.9390    16.1910 ha         1 KPX       0.220000
     47 HAD1       -10.6270    36.3480    11.5410 ha         1 KPX       0.153000
     48 HBA3       -19.4880    30.4290    18.7510 hc         1 KPX       0.032367
     49 HBA1       -19.5040    32.1520    18.3370 hc         1 KPX       0.032367
     50 HBA2       -18.0160    31.1970    18.1220 hc         1 KPX       0.032367
     51 HBB1       -23.2530    39.3770    17.6450 hc         1 KPX       0.016200
     52 HBB2       -22.9270    37.5770    17.5210 hc         1 KPX       0.016200
     53 HBC1       -17.9800    41.9390    13.1520 ha         1 KPX       0.134000
     54 HBD1       -10.0610    37.0870     9.3030 ha         1 KPX       0.169500
     55 HBD2       -11.6650    37.9860     9.1350 ha         1 KPX       0.169500
     56 HHB1       -19.3920    39.8310    16.6520 ha         1 KPX       0.259000
     57 HHC2       -13.8200    37.6440    15.4840 hc         1 KPX       0.052200
     58 HHC1       -13.3650    39.0120    14.5020 hc         1 KPX       0.052200
     59 HMC2       -15.4700    41.1740    12.8380 hc         1 KPX       0.032367
     60 HMC1       -15.4280    42.2640    14.2340 hc         1 KPX       0.032367
     61 HMC3       -14.1010    41.1370    13.9600 hc         1 KPX       0.032367
     62 HMD3       -12.8220    35.2360    14.4330 hc         1 KPX       0.045033
     63 HMD2       -11.5390    35.1420    13.2290 hc         1 KPX       0.045033
     64 HMD1       -11.4800    36.3890    14.4890 hc         1 KPX       0.045033
     65 HNA        -19.0680    35.6380    21.1440 hn         1 KPX       0.352500
     66 HNC        -16.3890    37.4310    16.2240 hn         1 KPX       0.379000
     67 CHA        -18.3290    34.6850    18.6650 cf         1 KPX      -0.243600
     68 CMA        -15.5990    33.5780    22.0010 c3         1 KPX      -0.070100
     69 HND        -15.4560    38.7670    12.0840 hn         1 KPX       0.363500
     70 OD         -13.7410    38.8160    10.2000 o          1 KPX      -0.566000
     71 HHA1       -17.9650    34.1190    17.8100 ha         1 KPX       0.183000
     72 HMA3       -15.3690    33.8150    23.0470 hc         1 KPX       0.035367
     73 HMA1       -14.9270    32.7700    21.6870 hc         1 KPX       0.035367
     74 HMA2       -15.3640    34.4630    21.3970 hc         1 KPX       0.035367
     75 CMB        -21.1870    35.8410    19.6710 c3         1 KPX      -0.006900
     76 OA         -18.4010    34.6270    23.3930 o          1 KPX      -0.560000
     77 HMB1       -21.0400    34.7550    19.6990 hc         1 KPX       0.022700
     78 HMB2       -21.1260    36.2180    20.6990 hc         1 KPX       0.022700
     79 HMB3       -22.2060    36.0210    19.3100 hc         1 KPX       0.022700
@<TRIPOS>BOND
     1     1    28 1   
     2     2     5 2   
     3     2    17 1   
     4     3     7 1   
     5     3    19 1   
     6     3    69 1   
     7     4     8 1   
     8     4    34 1   
     9     4    76 2   
    10     5     9 1   
    11     5    67 1   
    12     6    10 2   
    13     6    30 1   
    14     6    35 1   
    15     7    11 1   
    16     7    31 1   
    17     7    39 1   
    18     8    12 1   
    19     8    40 1   
    20     8    68 1   
    21     9    13 2   
    22     9    75 1   
    23    10    14 1   
    24    10    22 1   
    25    11    15 2   
    26    11    33 1   
    27    12    16 1   
    28    12    20 1   
    29    12    41 1   
    30    13    17 1   
    31    13    21 1   
    32    14    18 2   
    33    14    32 1   
    34    15    19 1   
    35    15    23 1   
    36    16    34 1   
    37    16    67 2   
    38    17    30 2   
    39    18    31 1   
    40    18    35 1   
    41    19    70 2   
    42    20    24 1   
    43    20    42 1   
    44    20    43 1   
    45    21    25 1   
    46    21    44 1   
    47    21    45 1   
    48    22    26 2   
    49    22    46 1   
    50    23    27 2   
    51    23    47 1   
    52    24    48 1   
    53    24    49 1   
    54    24    50 1   
    55    25    28 1   
    56    25    51 1   
    57    25    52 1   
    58    26    29 1   
    59    26    53 1   
    60    27    54 1   
    61    27    55 1   
    62    28    36 1   
    63    29    37 1   
    64    29    38 1   
    65    30    56 1   
    66    31    57 1   
    67    31    58 1   
    68    32    59 1   
    69    32    60 1   
    70    32    61 1   
    71    33    62 1   
    72    33    63 1   
    73    33    64 1   
    74    34    65 1   
    75    35    66 1   
    76    67    71 1   
    77    68    72 1   
    78    68    73 1   
    79    68    74 1   
    80    75    77 1   
    81    75    78 1   
    82    75    79 1   
@<TRIPOS>SUBSTRUCTURE
     1 KPX         1 TEMP              0 ****  ****    0 ROOT
