@<TRIPOS>MOLECULE
KPX
   79    82     1     0     0
SMALL
abcg2


@<TRIPOS>ATOM
      1 O2B        -22.2310    38.1600    15.2360 o          1 KPX      -0.725500
      2 NB         -18.1110    37.2070    17.6090 nc         1 KPX      -0.618300
      3 ND         -14.9700    37.9570    12.3000 ns         1 KPX      -0.495900
      4 C1A        -18.1610    34.2060    22.2230 c          1 KPX       0.563000
      5 C1B        -18.6310    36.3670    18.4720 cd         1 KPX       0.432900
      6 C1C        -17.6510    39.5650    15.8900 cc         1 KPX      -0.203800
      7 C1D        -14.6560    37.3340    13.5540 c5         1 KPX       0.130900
      8 C2A        -17.7720    32.8580    21.6570 c5         1 KPX      -0.159700
      9 C2B        -19.9170    36.8310    18.9740 cd         1 KPX      -0.307800
     10 C2C        -17.3540    40.6400    15.0300 cd         1 KPX       0.024200
     11 C2D        -13.4130    36.5600    13.2230 c2         1 KPX      -0.093400
     12 C3A        -17.1730    33.1990    20.2840 c5         1 KPX      -0.023500
     13 C3B        -20.1380    38.0390    18.3780 cc         1 KPX       0.004800
     14 C3C        -16.0850    40.3670    14.4560 cd         1 KPX      -0.172300
     15 C3D        -13.0800    36.7500    11.9320 ce         1 KPX      -0.152200
     16 C4A        -17.8170    34.5290    19.9640 c2         1 KPX      -0.016600
     17 C4B        -18.9960    38.2680    17.5180 cc         1 KPX      -0.018400
     18 C4C        -15.6620    39.1490    14.9720 cc         1 KPX      -0.178300
     19 C4D        -14.0920    37.6550    11.3170 c          1 KPX       0.565200
     20 CAA        -17.3330    32.0900    19.2470 c3         1 KPX      -0.063400
     21 CAB        -21.3350    38.9180    18.5490 c3         1 KPX      -0.013200
     22 CAC        -18.2420    41.7650    14.8290 cf         1 KPX      -0.220200
     23 CAD        -11.9420    36.1700    11.2390 ce         1 KPX      -0.161000
     24 CBA        -16.2750    32.0880    18.1510 c3         1 KPX      -0.088100
     25 CBB        -22.4730    38.6100    17.5670 c3         1 KPX      -0.202400
     26 CBC        -18.1610    42.7330    13.9060 ce         1 KPX      -0.214200
     27 CBD        -11.6030    36.3390     9.9600 c2         1 KPX      -0.298000
     28 CGB        -22.1660    39.0360    16.1190 c          1 KPX       0.704000
     29 CGC        -19.1860    43.8410    13.7970 c          1 KPX       0.694200
     30 CHB        -18.7780    39.3530    16.7180 cf         1 KPX       0.093800
     31 CHC        -14.4370    38.3540    14.6870 c3         1 KPX      -0.005100
     32 CMC        -15.3080    41.2200    13.5100 c3         1 KPX      -0.009800
     33 CMD        -12.7380    35.7430    14.2610 c3         1 KPX      -0.047900
     34 NA         -18.2020    35.0770    21.1760 ns         1 KPX      -0.406100
     35 NC         -16.6090    38.6890    15.8160 na         1 KPX      -0.083000
     36 O1B        -21.8890    40.2450    15.9510 o          1 KPX      -0.725500
     37 O1C        -19.0370    44.6110    12.8240 o          1 KPX      -0.723000
     38 O2C        -20.0820    43.8940    14.6640 o          1 KPX      -0.723000
     39 H1D1       -15.4500    36.6390    13.8550 h1         1 KPX       0.079700
     40 H2A1       -18.7120    32.3110    21.5020 hc         1 KPX       0.074700
     41 H3A1       -16.1010    33.3890    20.4360 hc         1 KPX       0.056700
     42 HAA1       -18.3360    32.1390    18.8140 hc         1 KPX       0.042200
     43 HAA2       -17.2790    31.1320    19.7700 hc         1 KPX       0.042200
     44 HAB2       -21.0550    39.9680    18.4480 hc         1 KPX       0.032700
     45 HAB1       -21.7060    38.8020    19.5710 hc         1 KPX       0.032700
     46 HAC1       -19.0930    41.8200    15.5020 ha         1 KPX       0.220000
     47 HAD1       -11.3100    35.5310    11.8470 ha         1 KPX       0.153000
     48 HBA3       -16.4130    31.2370    17.4830 hc         1 KPX       0.032367
     49 HBA1       -16.2980    32.9870    17.5370 hc         1 KPX       0.032367
     50 HBA2       -15.2750    32.0110    18.5810 hc         1 KPX       0.032367
     51 HBB1       -23.3610    39.1550    17.9040 hc         1 KPX       0.016200
     52 HBB2       -22.7180    37.5460    17.6150 hc         1 KPX       0.016200
     53 HBC1       -17.3630    42.7440    13.1730 ha         1 KPX       0.134000
     54 HBD1       -10.7250    35.8460     9.5650 ha         1 KPX       0.169500
     55 HBD2       -12.1660    36.9580     9.2780 ha         1 KPX       0.169500
     56 HHB1       -19.5470    40.1150    16.6970 ha         1 KPX       0.259000
     57 HHC2       -14.1330    37.8150    15.5880 hc         1 KPX       0.052200
     58 HHC1       -13.6100    39.0120    14.4140 hc         1 KPX       0.052200
     59 HMC2       -15.7590    41.2540    12.5160 hc         1 KPX       0.032367
     60 HMC1       -15.2420    42.2500    13.8640 hc         1 KPX       0.032367
     61 HMC3       -14.2900    40.8520    13.3870 hc         1 KPX       0.032367
     62 HMD3       -13.4570    35.1060    14.7780 hc         1 KPX       0.045033
     63 HMD2       -11.9560    35.1090    13.8510 hc         1 KPX       0.045033
     64 HMD1       -12.2830    36.3830    15.0220 hc         1 KPX       0.045033
     65 HNA        -18.4790    36.0410    21.2930 hn         1 KPX       0.352500
     66 HNC        -16.6050    37.8280    16.3560 hn         1 KPX       0.379000
     67 CHA        -17.9680    35.1050    18.7630 cf         1 KPX      -0.243600
     68 CMA        -16.8690    32.0510    22.5690 c3         1 KPX      -0.070100
     69 HND        -15.7920    38.5210    12.1500 hn         1 KPX       0.363500
     70 OD         -14.1460    38.0550    10.1660 o          1 KPX      -0.566000
     71 HHA1       -17.5040    34.6130    17.9180 ha         1 KPX       0.183000
     72 HMA3       -17.3570    31.8330    23.5180 hc         1 KPX       0.035367
     73 HMA1       -16.6120    31.0990    22.1040 hc         1 KPX       0.035367
     74 HMA2       -15.9400    32.5840    22.7760 hc         1 KPX       0.035367
     75 CMB        -20.8550    36.0910    19.8710 c3         1 KPX      -0.006900
     76 OA         -18.4100    34.4830    23.3760 o          1 KPX      -0.560000
     77 HMB1       -20.7220    35.0120    19.7840 hc         1 KPX       0.022700
     78 HMB2       -20.7310    36.3460    20.9260 hc         1 KPX       0.022700
     79 HMB3       -21.8910    36.3140    19.6140 hc         1 KPX       0.022700
@<TRIPOS>BOND
     1     1    28 1   
     2     2     5 2   
     3     2    17 1   
     4     3     7 1   
     5     3    19 1   
     6     3    69 1   
     7     4     8 1   
     8     4    34 1   
     9     4    76 2   
    10     5     9 1   
    11     5    67 1   
    12     6    10 2   
    13     6    30 1   
    14     6    35 1   
    15     7    11 1   
    16     7    31 1   
    17     7    39 1   
    18     8    12 1   
    19     8    40 1   
    20     8    68 1   
    21     9    13 2   
    22     9    75 1   
    23    10    14 1   
    24    10    22 1   
    25    11    15 2   
    26    11    33 1   
    27    12    16 1   
    28    12    20 1   
    29    12    41 1   
    30    13    17 1   
    31    13    21 1   
    32    14    18 2   
    33    14    32 1   
    34    15    19 1   
    35    15    23 1   
    36    16    34 1   
    37    16    67 2   
    38    17    30 2   
    39    18    31 1   
    40    18    35 1   
    41    19    70 2   
    42    20    24 1   
    43    20    42 1   
    44    20    43 1   
    45    21    25 1   
    46    21    44 1   
    47    21    45 1   
    48    22    26 2   
    49    22    46 1   
    50    23    27 2   
    51    23    47 1   
    52    24    48 1   
    53    24    49 1   
    54    24    50 1   
    55    25    28 1   
    56    25    51 1   
    57    25    52 1   
    58    26    29 1   
    59    26    53 1   
    60    27    54 1   
    61    27    55 1   
    62    28    36 1   
    63    29    37 1   
    64    29    38 1   
    65    30    56 1   
    66    31    57 1   
    67    31    58 1   
    68    32    59 1   
    69    32    60 1   
    70    32    61 1   
    71    33    62 1   
    72    33    63 1   
    73    33    64 1   
    74    34    65 1   
    75    35    66 1   
    76    67    71 1   
    77    68    72 1   
    78    68    73 1   
    79    68    74 1   
    80    75    77 1   
    81    75    78 1   
    82    75    79 1   
@<TRIPOS>SUBSTRUCTURE
     1 KPX         1 TEMP              0 ****  ****    0 ROOT
