@<TRIPOS>MOLECULE
KQ0
   42    45     1     0     0
SMALL
bcc


@<TRIPOS>ATOM
      1 C10         -5.2300     3.0030    17.6120 cx         1 KQ0      -0.111400
      2 N12         -4.6010     0.6450    17.1630 n7         1 KQ0      -0.781200
      3 C13         -5.5140    -0.2060    17.9020 c3         1 KQ0       0.241100
      4 C15         -3.4250    -1.4930    18.6750 cc         1 KQ0      -0.124300
      5 C20         -7.0750    -3.0440    21.1690 cc         1 KQ0      -0.131000
      6 C21         -8.4850    -3.0830    21.3070 cc         1 KQ0      -0.152000
      7 C22         -9.1330    -2.4980    20.2630 cd         1 KQ0      -0.119100
      8 C01         -9.4770     0.5830    11.9070 c3         1 KQ0       0.125700
      9 C03         -8.5500     1.1470    14.0170 ca         1 KQ0       0.144100
     10 C04         -7.2420     1.0750    13.5410 ca         1 KQ0      -0.191000
     11 C05         -6.1830     1.3300    14.4040 ca         1 KQ0      -0.080000
     12 C06         -6.3870     1.6630    15.7370 ca         1 KQ0      -0.126300
     13 C07         -7.7010     1.7310    16.1940 ca         1 KQ0      -0.080000
     14 C08         -8.7720     1.4810    15.3540 ca         1 KQ0      -0.191000
     15 C09         -5.2210     1.8450    16.6630 cx         1 KQ0       0.153500
     16 C11         -4.2920     2.9960    16.4400 cx         1 KQ0      -0.111400
     17 C14         -4.7800    -1.2570    18.6690 cd         1 KQ0      -0.251600
     18 C18         -5.2970    -2.2260    19.5640 cd         1 KQ0       0.393800
     19 C19         -6.6640    -2.4250    20.0190 cd         1 KQ0      -0.093600
     20 N16         -3.2160    -2.5220    19.5140 na         1 KQ0      -0.000600
     21 N17         -4.3260    -2.9830    20.0610 nc         1 KQ0      -0.512800
     22 S23         -8.0280    -1.8890    19.1050 ss         1 KQ0      -0.088800
     23 H1          -4.8110     2.8450    18.5970 hc         1 KQ0       0.077200
     24 H2          -6.0740     3.6810    17.5840 hc         1 KQ0       0.077200
     25 H3          -4.2120     0.1260    16.3840 hn         1 KQ0       0.357800
     26 H5          -6.0800     0.4230    18.5970 h1         1 KQ0       0.046200
     27 H6          -6.2640    -0.6770    17.2500 h1         1 KQ0       0.046200
     28 H7          -2.6160    -1.0110    18.1510 h4         1 KQ0       0.179000
     29 H8          -6.3850    -3.4470    21.8960 ha         1 KQ0       0.162000
     30 H9          -8.9950    -3.5270    22.1510 ha         1 KQ0       0.150000
     31 H10        -10.1950    -2.3840    20.1130 h4         1 KQ0       0.167000
     32 H11        -10.4740     0.4460    11.4950 h1         1 KQ0       0.040700
     33 H12         -8.9750     1.3790    11.3500 h1         1 KQ0       0.040700
     34 H13         -8.9130    -0.3440    11.7780 h1         1 KQ0       0.040700
     35 H14         -7.0290     0.8250    12.5110 ha         1 KQ0       0.140500
     36 H15         -5.1720     1.2710    14.0170 ha         1 KQ0       0.132500
     37 H16         -7.8950     1.9860    17.2300 ha         1 KQ0       0.132500
     38 H17         -9.7870     1.5400    15.7270 ha         1 KQ0       0.140500
     39 H18         -3.2400     2.8310    16.6350 hc         1 KQ0       0.077200
     40 H19         -4.4970     3.6690    15.6170 hc         1 KQ0       0.077200
     41 H20         -2.3330    -2.9500    19.7400 hn         1 KQ0       0.321700
     42 O02         -9.6470     0.9150    13.2690 os         1 KQ0      -0.317900
@<TRIPOS>BOND
     1     1    15 1   
     2     1    16 1   
     3     1    23 1   
     4     1    24 1   
     5     2     3 1   
     6     2    15 1   
     7     2    25 1   
     8     3    17 1   
     9     3    26 1   
    10     3    27 1   
    11     4    17 2   
    12     4    20 1   
    13     4    28 1   
    14     5     6 1   
    15     5    19 2   
    16     5    29 1   
    17     6     7 2   
    18     6    30 1   
    19     7    22 1   
    20     7    31 1   
    21     8    32 1   
    22     8    33 1   
    23     8    34 1   
    24     8    42 1   
    25     9    10 ar  
    26     9    14 ar  
    27     9    42 1   
    28    10    11 ar  
    29    10    35 1   
    30    11    12 ar  
    31    11    36 1   
    32    12    13 ar  
    33    12    15 1   
    34    13    14 ar  
    35    13    37 1   
    36    14    38 1   
    37    15    16 1   
    38    16    39 1   
    39    16    40 1   
    40    17    18 1   
    41    18    19 1   
    42    18    21 2   
    43    19    22 1   
    44    20    21 1   
    45    20    41 1   
@<TRIPOS>SUBSTRUCTURE
     1 KQ0         1 TEMP              0 ****  ****    0 ROOT
