@<TRIPOS>MOLECULE
KQ0
   42    45     1     0     0
SMALL
No Charge or Current Charge


@<TRIPOS>ATOM
      1 C10         -5.2530     3.2040    17.5560 cx         1 KQ0      -0.111400
      2 N12         -4.6280     0.7840    17.2730 n7         1 KQ0      -0.836400
      3 C13         -5.4960    -0.0130    18.1600 c3         1 KQ0       0.241100
      4 C15         -3.4500    -1.5080    18.5970 cc         1 KQ0      -0.157000
      5 C20         -7.1250    -3.3400    20.8530 cc         1 KQ0      -0.113000
      6 C21         -8.4980    -3.2540    21.1910 cc         1 KQ0      -0.134000
      7 C22         -9.1350    -2.1660    20.6520 cd         1 KQ0      -0.246000
      8 C01         -9.4300     0.3930    11.8130 c3         1 KQ0       0.148900
      9 C03         -8.5090     1.0530    14.0060 ca         1 KQ0       0.144100
     10 C04         -7.1740     0.9910    13.5500 ca         1 KQ0      -0.173000
     11 C05         -6.1160     1.2880    14.4280 ca         1 KQ0      -0.062000
     12 C06         -6.3760     1.6500    15.7630 ca         1 KQ0      -0.126300
     13 C07         -7.7100     1.7110    16.2140 ca         1 KQ0      -0.062000
     14 C08         -8.7670     1.4130    15.3370 ca         1 KQ0      -0.173000
     15 C09         -5.2380     1.9600    16.6980 cx         1 KQ0       0.153500
     16 C11         -4.3020     3.1030    16.3900 cx         1 KQ0      -0.111400
     17 C14         -4.7780    -1.1990    18.7550 cd         1 KQ0      -0.186300
     18 C18         -5.3240    -2.2190    19.5920 cd         1 KQ0       0.328500
     19 C19         -6.6980    -2.3100    20.0450 cd         1 KQ0      -0.238500
     20 N16         -3.2720    -2.6770    19.3270 na         1 KQ0      -0.000200
     21 N17         -4.4240    -3.1220    19.9440 nc         1 KQ0      -0.512800
     22 S23         -8.0220    -1.1840    19.6800 ss         1 KQ0       0.201000
     23 H1          -4.8370     3.1380    18.5580 hc         1 KQ0       0.077200
     24 H2          -6.0980     3.8810    17.4580 hc         1 KQ0       0.077200
     25 H3          -4.3240     0.1670    16.5140 hn         1 KQ0       0.413000
     26 H5          -5.8720     0.6140    18.9810 h1         1 KQ0       0.046200
     27 H6          -6.3610    -0.3860    17.5950 h1         1 KQ0       0.046200
     28 H7          -2.6510    -1.0170    18.0540 h4         1 KQ0       0.161000
     29 H8          -6.4980    -4.1510    21.2120 ha         1 KQ0       0.144000
     30 H9          -8.9860    -3.9920    21.8220 ha         1 KQ0       0.132000
     31 H10        -10.1730    -1.8730    20.7560 h4         1 KQ0       0.149000
     32 H11        -10.4100     0.2160    11.3530 h1         1 KQ0       0.040700
     33 H12         -8.9270     1.1860    11.2460 h1         1 KQ0       0.040700
     34 H13         -8.8420    -0.5300    11.7270 h1         1 KQ0       0.040700
     35 H14         -6.9390     0.7150    12.5260 ha         1 KQ0       0.122500
     36 H15         -5.0900     1.2360    14.0690 ha         1 KQ0       0.114500
     37 H16         -7.9270     1.9840    17.2440 ha         1 KQ0       0.114500
     38 H17         -9.7940     1.4610    15.6920 ha         1 KQ0       0.122500
     39 H18         -3.2450     2.9720    16.6090 hc         1 KQ0       0.077200
     40 H19         -4.5130     3.7090    15.5130 hc         1 KQ0       0.077200
     41 H20         -2.3940    -3.1880    19.4250 hn         1 KQ0       0.372000
     42 O02         -9.5880     0.7720    13.1920 os         1 KQ0      -0.341100
@<TRIPOS>BOND
     1     1    15 1   
     2     1    16 1   
     3     1    23 1   
     4     1    24 1   
     5     2     3 1   
     6     2    15 1   
     7     2    25 1   
     8     3    17 1   
     9     3    26 1   
    10     3    27 1   
    11     4    17 2   
    12     4    20 1   
    13     4    28 1   
    14     5     6 1   
    15     5    19 2   
    16     5    29 1   
    17     6     7 2   
    18     6    30 1   
    19     7    22 1   
    20     7    31 1   
    21     8    32 1   
    22     8    33 1   
    23     8    34 1   
    24     8    42 1   
    25     9    10 ar  
    26     9    14 ar  
    27     9    42 1   
    28    10    11 ar  
    29    10    35 1   
    30    11    12 ar  
    31    11    36 1   
    32    12    13 ar  
    33    12    15 1   
    34    13    14 ar  
    35    13    37 1   
    36    14    38 1   
    37    15    16 1   
    38    16    39 1   
    39    16    40 1   
    40    17    18 1   
    41    18    19 1   
    42    18    21 2   
    43    19    22 1   
    44    20    21 1   
    45    20    41 1   
@<TRIPOS>SUBSTRUCTURE
     1 KQ0         1 TEMP              0 ****  ****    0 ROOT
