@<TRIPOS>MOLECULE
KQ6
   81    84     1     0     0
SMALL
No Charge or Current Charge


@<TRIPOS>ATOM
      1 NB          -8.6400    18.6310    26.6550 nc         1 KQ6      -0.627300
      2 ND          -6.5740    13.5830    30.0770 ns         1 KQ6      -0.494900
      3 OD          -6.0520    12.0660    31.7100 o          1 KQ6      -0.567000
      4 C1A         -6.1160    23.3720    27.4110 c          1 KQ6       0.563000
      5 C1B         -8.4670    19.8730    26.2270 cd         1 KQ6       0.446900
      6 C1C         -9.9070    16.1670    27.7500 cc         1 KQ6      -0.204800
      7 C1D         -6.0730    14.0120    28.7580 c5         1 KQ6       0.130900
      8 C2A         -4.9930    23.2940    26.3620 c5         1 KQ6      -0.159700
      9 C2B         -9.6670    20.6460    26.2790 cd         1 KQ6      -0.309800
     10 C2C        -10.5520    15.0560    28.2420 cd         1 KQ6       0.020200
     11 C2D         -4.7900    13.1640    28.6450 c2         1 KQ6      -0.103400
     12 C3A         -5.0780    21.8250    25.8000 c5         1 KQ6      -0.026500
     13 C3B        -10.6130    19.8070    26.8020 cc         1 KQ6       0.007800
     14 C3C         -9.6080    13.9910    28.2750 cd         1 KQ6      -0.170300
     15 C3D         -4.6910    12.3800    29.7340 ce         1 KQ6      -0.186400
     16 C4A         -6.4780    21.3660    26.1920 c2         1 KQ6       0.002400
     17 C4B         -9.9630    18.5500    27.0350 cc         1 KQ6      -0.020400
     18 C4C         -8.4020    14.4490    27.8000 cc         1 KQ6      -0.179300
     19 C4D         -5.8150    12.6110    30.6440 c          1 KQ6       0.558200
     20 CAB        -12.0740    20.1020    27.0650 c3         1 KQ6      -0.012200
     21 CAC        -11.9540    14.9810    28.6590 cf         1 KQ6      -0.221200
     22 CAD         -3.6070    11.3590    30.0470 c3         1 KQ6      -0.009200
     23 CBB        -12.3550    20.7680    28.4350 c3         1 KQ6      -0.202400
     24 CBC        -12.8690    14.0410    28.2690 ce         1 KQ6      -0.221200
     25 CBD         -2.3180    12.0070    30.5850 c3         1 KQ6      -0.085100
     26 CGB        -11.9270    19.8550    29.5970 c          1 KQ6       0.708000
     27 CGC        -14.3060    13.9800    28.6780 c          1 KQ6       0.691200
     28 CHA         -7.1490    20.2780    25.7570 cf         1 KQ6      -0.266600
     29 CHB        -10.4990    17.3910    27.5530 cf         1 KQ6       0.091800
     30 CHC         -7.0880    13.7250    27.6260 c3         1 KQ6      -0.009100
     31 CMA         -5.2130    24.3790    25.2800 c3         1 KQ6      -0.070100
     32 CMB         -9.8510    22.0760    25.8290 c3         1 KQ6      -0.008900
     33 CMC         -9.8950    12.5910    28.7640 c3         1 KQ6      -0.009800
     34 NA          -6.8960    22.2940    27.1350 ns         1 KQ6      -0.403100
     35 NC          -8.5980    15.7890    27.4800 na         1 KQ6      -0.084000
     36 O1B        -10.8240    20.0220    30.0920 o          1 KQ6      -0.728000
     37 O1C        -14.7410    14.8330    29.4350 o          1 KQ6      -0.722500
     38 O2B        -12.7040    18.9830    29.9540 o          1 KQ6      -0.728000
     39 O2C        -14.9830    13.0690    28.2290 o          1 KQ6      -0.722500
     40 HND         -7.4360    13.8740    30.5200 hn         1 KQ6       0.362500
     41 H1D1        -5.8360    15.0850    28.7540 h1         1 KQ6       0.080700
     42 H2A1        -4.0380    23.5350    26.8430 hc         1 KQ6       0.077700
     43 H3A1        -4.9800    21.8240    24.7070 hc         1 KQ6       0.054700
     44 HAB1       -12.4520    20.7660    26.2790 hc         1 KQ6       0.033200
     45 HAB2       -12.6740    19.1900    26.9760 hc         1 KQ6       0.033200
     46 HAC1       -12.2960    15.7900    29.3100 ha         1 KQ6       0.227000
     47 HAD1        -3.9660    10.6280    30.7820 hc         1 KQ6       0.042700
     48 HAD2        -3.3640    10.7810    29.1470 hc         1 KQ6       0.042700
     49 HBA1        -3.1330    19.9620    28.1230 hc         1 KQ6       0.037700
     50 HBA3        -3.7910    21.5870    28.3920 hc         1 KQ6       0.037700
     51 HBA2        -4.8890    20.2010    28.1960 hc         1 KQ6       0.037700
     52 HBB2       -11.7920    21.7090    28.4490 hc         1 KQ6       0.016700
     53 HBB1       -13.4420    20.9100    28.4530 hc         1 KQ6       0.016700
     54 HBC1       -12.5470    13.2500    27.5970 ha         1 KQ6       0.133000
     55 HBD1        -1.5630    11.2400    30.7950 hc         1 KQ6       0.033033
     56 HBD2        -1.9000    12.7100    29.8560 hc         1 KQ6       0.033033
     57 HBD3        -2.5220    12.5530    31.5140 hc         1 KQ6       0.033033
     58 HHA1        -6.6670    19.5880    25.0670 ha         1 KQ6       0.176000
     59 HHB1       -11.5510    17.4540    27.8270 ha         1 KQ6       0.259000
     60 HHC2        -7.2650    12.6450    27.5560 hc         1 KQ6       0.052200
     61 HHC1        -6.6470    14.0140    26.6640 hc         1 KQ6       0.052200
     62 HMA2        -5.2030    25.3830    25.7200 hc         1 KQ6       0.035367
     63 HMA1        -4.4240    24.3420    24.5190 hc         1 KQ6       0.035367
     64 HMA3        -6.1760    24.2450    24.7710 hc         1 KQ6       0.035367
     65 HMB3       -10.7890    22.2020    25.2760 hc         1 KQ6       0.022367
     66 HMB1        -9.8750    22.7580    26.6880 hc         1 KQ6       0.022367
     67 HMB2        -9.0390    22.3960    25.1660 hc         1 KQ6       0.022367
     68 HMC2       -10.6570    12.5910    29.5520 hc         1 KQ6       0.032367
     69 HMC1       -10.2570    11.9580    27.9450 hc         1 KQ6       0.032367
     70 HMC3        -8.9990    12.1180    29.1810 hc         1 KQ6       0.032367
     71 HMD1        -2.9550    12.6370    27.5910 hc         1 KQ6       0.043033
     72 HMD2        -4.3470    12.9140    26.5380 hc         1 KQ6       0.043033
     73 HMD3        -3.5220    14.2860    27.2960 hc         1 KQ6       0.043033
     74 HNA         -7.7090    22.1260    27.7140 hn         1 KQ6       0.361500
     75 HNC         -7.8980    16.4190    27.0960 hn         1 KQ6       0.382000
     76 CAA         -3.9680    20.8730    26.3250 c3         1 KQ6      -0.058400
     77 CBA         -3.9470    20.6450    27.8530 c3         1 KQ6      -0.093100
     78 CMD         -3.8520    13.2530    27.4560 c3         1 KQ6      -0.044900
     79 OA          -6.2420    24.0990    28.3840 o          1 KQ6      -0.551000
     80 HAA2        -4.0720    19.8970    25.8360 hc         1 KQ6       0.033200
     81 HAA1        -2.9880    21.2590    26.0200 hc         1 KQ6       0.033200
@<TRIPOS>BOND
     1     1     5 2   
     2     1    17 1   
     3     2     7 1   
     4     2    19 1   
     5     2    40 1   
     6     3    19 2   
     7     4     8 1   
     8     4    34 1   
     9     4    79 2   
    10     5     9 1   
    11     5    28 1   
    12     6    10 2   
    13     6    29 1   
    14     6    35 1   
    15     7    11 1   
    16     7    30 1   
    17     7    41 1   
    18     8    12 1   
    19     8    31 1   
    20     8    42 1   
    21     9    13 2   
    22     9    32 1   
    23    10    14 1   
    24    10    21 1   
    25    11    15 2   
    26    11    78 1   
    27    12    16 1   
    28    12    43 1   
    29    12    76 1   
    30    13    17 1   
    31    13    20 1   
    32    14    18 2   
    33    14    33 1   
    34    15    19 1   
    35    15    22 1   
    36    16    28 2   
    37    16    34 1   
    38    17    29 2   
    39    18    30 1   
    40    18    35 1   
    41    20    23 1   
    42    20    44 1   
    43    20    45 1   
    44    21    24 2   
    45    21    46 1   
    46    22    25 1   
    47    22    47 1   
    48    22    48 1   
    49    23    26 1   
    50    23    52 1   
    51    23    53 1   
    52    24    27 1   
    53    24    54 1   
    54    25    55 1   
    55    25    56 1   
    56    25    57 1   
    57    26    36 1   
    58    26    38 1   
    59    27    37 1   
    60    27    39 1   
    61    28    58 1   
    62    29    59 1   
    63    30    60 1   
    64    30    61 1   
    65    31    62 1   
    66    31    63 1   
    67    31    64 1   
    68    32    65 1   
    69    32    66 1   
    70    32    67 1   
    71    33    68 1   
    72    33    69 1   
    73    33    70 1   
    74    34    74 1   
    75    35    75 1   
    76    49    77 1   
    77    50    77 1   
    78    51    77 1   
    79    71    78 1   
    80    72    78 1   
    81    73    78 1   
    82    76    77 1   
    83    76    80 1   
    84    76    81 1   
@<TRIPOS>SUBSTRUCTURE
     1 KQ6         1 TEMP              0 ****  ****    0 ROOT
