@<TRIPOS>MOLECULE
KQ6
   81    84     1     0     0
SMALL
bcc


@<TRIPOS>ATOM
      1 NB          -8.8490    18.4740    26.7040 nc         1 KQ6      -0.627300
      2 ND          -6.7090    13.9570    29.8510 ns         1 KQ6      -0.561900
      3 OD          -5.8780    12.5380    31.4560 o          1 KQ6      -0.642500
      4 C1A         -5.8720    23.0580    27.4420 c          1 KQ6       0.705500
      5 C1B         -8.5630    19.7160    26.3950 cd         1 KQ6       0.446900
      6 C1C        -10.2330    16.0500    27.6320 cc         1 KQ6      -0.154100
      7 C1D         -6.2950    14.5040    28.5880 c5         1 KQ6       0.130900
      8 C2A         -4.6010    22.5560    26.7910 c5         1 KQ6      -0.159700
      9 C2B         -9.7370    20.5730    26.4650 cd         1 KQ6      -0.309800
     10 C2C        -10.7810    14.8370    28.0920 cd         1 KQ6       0.020200
     11 C2D         -4.8910    13.9780    28.4560 c2         1 KQ6      -0.103400
     12 C3A         -5.0710    21.4240    25.8670 c5         1 KQ6      -0.026500
     13 C3B        -10.7660    19.7690    26.8670 cc         1 KQ6       0.007800
     14 C3C         -9.7330    13.8800    28.0700 cd         1 KQ6      -0.170300
     15 C3D         -4.5990    13.1920    29.5000 ce         1 KQ6      -0.186400
     16 C4A         -6.4820    21.1280    26.3270 c2         1 KQ6       0.002400
     17 C4B        -10.1930    18.4490    27.0300 cc         1 KQ6      -0.020400
     18 C4C         -8.6010    14.5320    27.5980 cc         1 KQ6      -0.128600
     19 C4D         -5.7720    13.1590    30.4100 c          1 KQ6       0.700700
     20 CAB        -12.1850    20.1750    27.0860 c3         1 KQ6      -0.012200
     21 CAC        -12.1550    14.6910    28.5260 cf         1 KQ6      -0.171200
     22 CAD         -3.3410    12.4620    29.8220 c3         1 KQ6      -0.009200
     23 CBB        -12.4340    20.7630    28.4790 c3         1 KQ6      -0.202400
     24 CBC        -12.8210    13.5540    28.7670 ce         1 KQ6      -0.171200
     25 CBD         -2.5170    13.1710    30.8970 c3         1 KQ6      -0.085100
     26 CGB        -12.3920    19.7210    29.6150 c          1 KQ6       0.918600
     27 CGC        -14.2590    13.5170    29.2350 c          1 KQ6       0.901800
     28 CHA         -7.2120    20.0580    25.9820 cf         1 KQ6      -0.216600
     29 CHB        -10.8330    17.3200    27.4630 cf         1 KQ6       0.141800
     30 CHC         -7.2030    14.0520    27.4300 c3         1 KQ6      -0.009100
     31 CMA         -3.8090    23.6530    26.0990 c3         1 KQ6      -0.070100
     32 CMB         -9.8330    22.0110    26.0710 c3         1 KQ6      -0.008900
     33 CMC         -9.7840    12.4520    28.5020 c3         1 KQ6      -0.009800
     34 NA          -6.8580    22.1570    27.1650 ns         1 KQ6      -0.470100
     35 NC          -8.9220    15.8160    27.3430 na         1 KQ6      -0.135100
     36 O1B        -11.7190    20.0030    30.6260 o          1 KQ6      -0.833300
     37 O1C        -14.8340    14.6040    29.4480 o          1 KQ6      -0.827800
     38 O2B        -13.0690    18.6840    29.4360 o          1 KQ6      -0.833300
     39 O2C        -14.7450    12.3730    29.3670 o          1 KQ6      -0.827800
     40 HND         -7.6220    14.1060    30.2500 hn         1 KQ6       0.362500
     41 H1D1        -6.2810    15.6000    28.6200 h1         1 KQ6       0.080700
     42 H2A1        -3.9920    22.1470    27.6070 hc         1 KQ6       0.077700
     43 H3A1        -5.1510    21.8340    24.8530 hc         1 KQ6       0.054700
     44 HAB1       -12.4510    20.9240    26.3340 hc         1 KQ6       0.033200
     45 HAB2       -12.8590    19.3330    26.9250 hc         1 KQ6       0.033200
     46 HAC1       -12.7030    15.6170    28.6790 ha         1 KQ6       0.177000
     47 HAD1        -3.5870    11.4530    30.1630 hc         1 KQ6       0.042700
     48 HAD2        -2.7390    12.3410    28.9200 hc         1 KQ6       0.042700
     49 HBA1        -3.3290    18.5810    26.9550 hc         1 KQ6       0.037700
     50 HBA3        -3.5860    20.0350    27.9030 hc         1 KQ6       0.037700
     51 HBA2        -4.9600    19.0370    27.4340 hc         1 KQ6       0.037700
     52 HBB2       -11.7210    21.5690    28.6690 hc         1 KQ6       0.016700
     53 HBB1       -13.4300    21.2210    28.4800 hc         1 KQ6       0.016700
     54 HBC1       -12.3460    12.5920    28.6160 ha         1 KQ6       0.083000
     55 HBD1        -1.6140    12.6060    31.1300 hc         1 KQ6       0.033033
     56 HBD2        -2.2140    14.1640    30.5640 hc         1 KQ6       0.033033
     57 HBD3        -3.0840    13.2850    31.8200 hc         1 KQ6       0.033033
     58 HHA1        -6.7030    19.3040    25.3930 ha         1 KQ6       0.126000
     59 HHB1       -11.8780    17.4140    27.7290 ha         1 KQ6       0.209000
     60 HHC2        -7.1780    12.9630    27.3670 hc         1 KQ6       0.052200
     61 HHC1        -6.7930    14.4360    26.4920 hc         1 KQ6       0.052200
     62 HMA2        -3.5040    24.4250    26.8040 hc         1 KQ6       0.035367
     63 HMA1        -2.9060    23.2400    25.6490 hc         1 KQ6       0.035367
     64 HMA3        -4.3940    24.1220    25.3070 hc         1 KQ6       0.035367
     65 HMB3       -10.7830    22.2120    25.5730 hc         1 KQ6       0.022367
     66 HMB1        -9.7890    22.6910    26.9270 hc         1 KQ6       0.022367
     67 HMB2        -9.0390    22.2950    25.3810 hc         1 KQ6       0.022367
     68 HMC2       -10.2150    12.3500    29.4990 hc         1 KQ6       0.032367
     69 HMC1       -10.3870    11.8390    27.8290 hc         1 KQ6       0.032367
     70 HMC3        -8.7890    12.0110    28.5360 hc         1 KQ6       0.032367
     71 HMD1        -3.0370    13.9450    27.3800 hc         1 KQ6       0.043033
     72 HMD2        -4.4730    13.9740    26.3570 hc         1 KQ6       0.043033
     73 HMD3        -3.9720    15.4310    27.1940 hc         1 KQ6       0.043033
     74 HNA         -7.7740    22.2350    27.5830 hn         1 KQ6       0.361500
     75 HNC         -8.3200    16.5610    26.9980 hn         1 KQ6       0.331700
     76 CAA         -4.1400    20.2130    25.7990 c3         1 KQ6      -0.058400
     77 CBA         -4.0000    19.4290    27.0960 c3         1 KQ6      -0.093100
     78 CMD         -4.0450    14.3450    27.2910 c3         1 KQ6      -0.044900
     79 OA          -6.0120    24.0570    28.1120 o          1 KQ6      -0.626500
     80 HAA2        -4.4870    19.5460    25.0060 hc         1 KQ6       0.033200
     81 HAA1        -3.1580    20.5690    25.4740 hc         1 KQ6       0.033200
@<TRIPOS>BOND
     1     1     5 2   
     2     1    17 1   
     3     2     7 1   
     4     2    19 1   
     5     2    40 1   
     6     3    19 2   
     7     4     8 1   
     8     4    34 1   
     9     4    79 2   
    10     5     9 1   
    11     5    28 1   
    12     6    10 2   
    13     6    29 1   
    14     6    35 1   
    15     7    11 1   
    16     7    30 1   
    17     7    41 1   
    18     8    12 1   
    19     8    31 1   
    20     8    42 1   
    21     9    13 2   
    22     9    32 1   
    23    10    14 1   
    24    10    21 1   
    25    11    15 2   
    26    11    78 1   
    27    12    16 1   
    28    12    43 1   
    29    12    76 1   
    30    13    17 1   
    31    13    20 1   
    32    14    18 2   
    33    14    33 1   
    34    15    19 1   
    35    15    22 1   
    36    16    28 2   
    37    16    34 1   
    38    17    29 2   
    39    18    30 1   
    40    18    35 1   
    41    20    23 1   
    42    20    44 1   
    43    20    45 1   
    44    21    24 2   
    45    21    46 1   
    46    22    25 1   
    47    22    47 1   
    48    22    48 1   
    49    23    26 1   
    50    23    52 1   
    51    23    53 1   
    52    24    27 1   
    53    24    54 1   
    54    25    55 1   
    55    25    56 1   
    56    25    57 1   
    57    26    36 1   
    58    26    38 1   
    59    27    37 1   
    60    27    39 1   
    61    28    58 1   
    62    29    59 1   
    63    30    60 1   
    64    30    61 1   
    65    31    62 1   
    66    31    63 1   
    67    31    64 1   
    68    32    65 1   
    69    32    66 1   
    70    32    67 1   
    71    33    68 1   
    72    33    69 1   
    73    33    70 1   
    74    34    74 1   
    75    35    75 1   
    76    49    77 1   
    77    50    77 1   
    78    51    77 1   
    79    71    78 1   
    80    72    78 1   
    81    73    78 1   
    82    76    77 1   
    83    76    80 1   
    84    76    81 1   
@<TRIPOS>SUBSTRUCTURE
     1 KQ6         1 TEMP              0 ****  ****    0 ROOT
