@<TRIPOS>MOLECULE
KQ7
   77    81     1     0     0
SMALL
No Charge or Current Charge


@<TRIPOS>ATOM
      1 C1          10.3100     2.2200     1.1690 c6         1 KQ7       0.177800
      2 N2           9.5410     1.3600     0.2010 nh         1 KQ7      -0.773300
      3 C3          10.3260     0.1980    -0.3390 c6         1 KQ7       0.177800
      4 C4          11.7800     0.5850    -0.7410 c6         1 KQ7       0.143100
      5 O5          12.4440     1.2840     0.3360 os         1 KQ7      -0.444000
      6 C6          11.7650     2.5080     0.6950 c6         1 KQ7       0.143100
      7 C7           8.1290     1.3400     0.2120 ca         1 KQ7       0.616900
      8 N8           7.5570     2.5360     0.4320 nb         1 KQ7      -0.738000
      9 C9           6.2110     2.6000     0.4480 ca         1 KQ7       0.385900
     10 C10          5.3840     1.4840     0.2470 ca         1 KQ7      -0.209000
     11 C11          5.9650     0.2150     0.0140 ca         1 KQ7      -0.075600
     12 C12          7.3760     0.1680     0.0010 ca         1 KQ7      -0.181000
     13 C13          5.1470    -1.0480    -0.2100 c          1 KQ7       0.617700
     14 O14          5.6920    -2.1290    -0.4080 o          1 KQ7      -0.579100
     15 N15          3.7670    -0.8800    -0.1720 ns         1 KQ7      -0.138000
     16 C16          2.6800    -1.7860    -0.3320 ca         1 KQ7      -0.012000
     17 C17          2.8390    -3.1620    -0.5910 ca         1 KQ7      -0.135000
     18 C18          1.7140    -3.9900    -0.7260 ca         1 KQ7      -0.074000
     19 C19          0.4150    -3.4630    -0.6110 ca         1 KQ7      -0.127300
     20 C20          0.2390    -2.0820    -0.3630 ca         1 KQ7      -0.006000
     21 C21          1.3790    -1.2610    -0.2180 ca         1 KQ7      -0.156000
     22 C22         -0.7840    -4.3970    -0.7650 c3         1 KQ7      -0.041800
     23 N23         -1.0890    -1.5800    -0.2450 ns         1 KQ7      -0.165000
     24 C24         -1.6090    -0.2910    -0.2360 c          1 KQ7       0.638700
     25 O25         -0.9250     0.7140    -0.3870 o          1 KQ7      -0.595100
     26 C26         -3.0970    -0.1780    -0.0430 ca         1 KQ7      -0.287600
     27 C27         -3.7190     1.0870    -0.0240 ca         1 KQ7       0.025000
     28 C28         -5.1070     1.1380     0.1590 ca         1 KQ7      -0.254000
     29 C29         -5.8030    -0.0620     0.3110 ca         1 KQ7       0.649900
     30 N30         -5.2410    -1.2640     0.3000 nb         1 KQ7      -0.773000
     31 C31         -3.9040    -1.3190     0.1240 ca         1 KQ7       0.426900
     32 N32         -7.1470    -0.1520     0.5000 nu         1 KQ7      -0.932100
     33 C33         -8.1470     0.9030     0.2950 c3         1 KQ7       0.234800
     34 C34         -9.5650     0.3730     0.5970 c3         1 KQ7      -0.081400
     35 C35        -10.6920     1.4350     0.4940 c5         1 KQ7       0.174500
     36 C36        -11.9820     1.0090     1.2440 c5         1 KQ7      -0.093400
     37 C37        -13.0500     2.0070     0.7060 c5         1 KQ7      -0.110400
     38 C38        -12.4040     2.5890    -0.5830 c5         1 KQ7       0.160800
     39 N39        -11.2860     1.6530    -0.8490 n3         1 KQ7      -0.727600
     40 C40        -10.3820     2.0820    -1.9370 c3         1 KQ7       0.155100
     41 H1           9.8190     3.1920     1.3240 h1         1 KQ7       0.058950
     42 H1A         10.3530     1.7250     2.1500 h1         1 KQ7       0.058950
     43 H3          10.3690    -0.6050     0.4110 h1         1 KQ7       0.058950
     44 H3A          9.8340    -0.2140    -1.2330 h1         1 KQ7       0.058950
     45 H4          12.3510    -0.3200    -0.9900 h1         1 KQ7       0.054950
     46 H4A         11.7610     1.2300    -1.6320 h1         1 KQ7       0.054950
     47 H6          11.7470     3.1800    -0.1750 h1         1 KQ7       0.054950
     48 H6A         12.3250     3.0090     1.4980 h1         1 KQ7       0.054950
     49 H9           5.7760     3.5830     0.6290 h4         1 KQ7       0.019100
     50 H10          4.3080     1.6300     0.2770 ha         1 KQ7       0.125000
     51 H12          7.8810    -0.7780    -0.1610 ha         1 KQ7       0.144000
     52 HN15         3.4760     0.0710     0.0030 hn         1 KQ7       0.158000
     53 H17          3.8210    -3.6140    -0.6880 ha         1 KQ7       0.147000
     54 H18          1.8580    -5.0510    -0.9220 ha         1 KQ7       0.114000
     55 H21          1.2730    -0.2030    -0.0010 ha         1 KQ7       0.129000
     56 H22         -1.3810    -4.4280     0.1550 hc         1 KQ7       0.040700
     57 H22A        -1.4380    -4.0710    -1.5830 hc         1 KQ7       0.040700
     58 H22B        -0.4750    -5.4260    -0.9860 hc         1 KQ7       0.040700
     59 HN23        -1.7820    -2.3080    -0.1470 hn         1 KQ7       0.153000
     60 H27         -3.1480     2.0060    -0.1460 ha         1 KQ7       0.137000
     61 H28         -5.6250     2.0910     0.1830 ha         1 KQ7       0.127000
     62 H31         -3.4840    -2.3230     0.1200 h4         1 KQ7       0.006100
     63 HN32        -7.4590    -1.1180     0.5230 hn         1 KQ7       0.503000
     64 H33         -7.9350     1.7510     0.9610 h1         1 KQ7       0.050200
     65 H33A        -8.0900     1.2670    -0.7380 h1         1 KQ7       0.050200
     66 H34         -9.7900    -0.4720    -0.0640 hc         1 KQ7       0.050700
     67 H34A        -9.5550    -0.0280     1.6180 hc         1 KQ7       0.050700
     68 H35        -10.3110     2.3780     0.9160 h1         1 KQ7       0.041700
     69 H36        -12.2560    -0.0250     1.0010 hc         1 KQ7       0.051200
     70 H36A       -11.8680     1.0660     2.3320 hc         1 KQ7       0.051200
     71 H37        -13.9960     1.4980     0.4910 hc         1 KQ7       0.050700
     72 H37A       -13.2680     2.8030     1.4270 hc         1 KQ7       0.050700
     73 H38        -13.1190     2.6340    -1.4170 h1         1 KQ7       0.052700
     74 H38A       -12.0330     3.6080    -0.4030 h1         1 KQ7       0.052700
     75 H40         -9.6770     1.2820    -2.1960 h1         1 KQ7       0.030367
     76 H40A       -10.9560     2.3200    -2.8420 h1         1 KQ7       0.030367
     77 H40B        -9.8120     2.9750    -1.6460 h1         1 KQ7       0.030367
@<TRIPOS>BOND
     1     1     2 1   
     2     1     6 1   
     3     1    41 1   
     4     1    42 1   
     5     2     3 1   
     6     2     7 1   
     7     3     4 1   
     8     3    43 1   
     9     3    44 1   
    10     4     5 1   
    11     4    45 1   
    12     4    46 1   
    13     5     6 1   
    14     6    47 1   
    15     6    48 1   
    16     7     8 ar  
    17     7    12 ar  
    18     8     9 ar  
    19     9    10 ar  
    20     9    49 1   
    21    10    11 ar  
    22    10    50 1   
    23    11    12 ar  
    24    11    13 1   
    25    12    51 1   
    26    13    14 2   
    27    13    15 1   
    28    15    16 1   
    29    15    52 1   
    30    16    17 ar  
    31    16    21 ar  
    32    17    18 ar  
    33    17    53 1   
    34    18    19 ar  
    35    18    54 1   
    36    19    20 ar  
    37    19    22 1   
    38    20    21 ar  
    39    20    23 1   
    40    21    55 1   
    41    22    56 1   
    42    22    57 1   
    43    22    58 1   
    44    23    24 1   
    45    23    59 1   
    46    24    25 2   
    47    24    26 1   
    48    26    27 ar  
    49    26    31 ar  
    50    27    28 ar  
    51    27    60 1   
    52    28    29 ar  
    53    28    61 1   
    54    29    30 ar  
    55    29    32 1   
    56    30    31 ar  
    57    31    62 1   
    58    32    33 1   
    59    32    63 1   
    60    33    34 1   
    61    33    64 1   
    62    33    65 1   
    63    34    35 1   
    64    34    66 1   
    65    34    67 1   
    66    35    36 1   
    67    35    39 1   
    68    35    68 1   
    69    36    37 1   
    70    36    69 1   
    71    36    70 1   
    72    37    38 1   
    73    37    71 1   
    74    37    72 1   
    75    38    39 1   
    76    38    73 1   
    77    38    74 1   
    78    39    40 1   
    79    40    75 1   
    80    40    76 1   
    81    40    77 1   
@<TRIPOS>SUBSTRUCTURE
     1 KQ7         1 TEMP              0 ****  ****    0 ROOT
