@<TRIPOS>MOLECULE
KQ7
   77    81     1     0     0
SMALL
bcc


@<TRIPOS>ATOM
      1 C1           9.9240     2.3840     1.0110 c6         1 KQ7       0.177800
      2 N2           9.1910     1.4210     0.2040 nh         1 KQ7      -0.773300
      3 C3           9.9260     0.1980    -0.0450 c6         1 KQ7       0.177800
      4 C4          11.3180     0.5230    -0.5590 c6         1 KQ7       0.119900
      5 O5          12.0150     1.4000     0.2940 os         1 KQ7      -0.397600
      6 C6          11.3050     2.6100     0.4340 c6         1 KQ7       0.119900
      7 C7           7.8240     1.4450     0.1930 ca         1 KQ7       0.682200
      8 N8           7.2370     2.5950     0.5310 nb         1 KQ7      -0.738000
      9 C9           5.9180     2.6860     0.4810 ca         1 KQ7       0.451200
     10 C10          5.0790     1.6500     0.1170 ca         1 KQ7      -0.292300
     11 C11          5.6760     0.4300    -0.2030 ca         1 KQ7      -0.075600
     12 C12          7.0530     0.3230    -0.1730 ca         1 KQ7      -0.264300
     13 C13          4.9000    -0.7960    -0.5890 c          1 KQ7       0.684700
     14 O14          5.4200    -1.6900    -1.2330 o          1 KQ7      -0.579100
     15 N15          3.6200    -0.8180    -0.1520 ns         1 KQ7      -0.464100
     16 C16          2.6350    -1.7910    -0.3680 ca         1 KQ7       0.080600
     17 C17          2.8870    -3.0820    -0.8260 ca         1 KQ7      -0.153000
     18 C18          1.8280    -3.9680    -0.9620 ca         1 KQ7      -0.092000
     19 C19          0.5150    -3.6200    -0.6740 ca         1 KQ7      -0.127300
     20 C20          0.2800    -2.3180    -0.2160 ca         1 KQ7       0.086600
     21 C21          1.3260    -1.4220    -0.0600 ca         1 KQ7      -0.174000
     22 C22         -0.6080    -4.6000    -0.8410 c3         1 KQ7      -0.041800
     23 N23         -1.0380    -1.9460     0.1060 ns         1 KQ7      -0.491100
     24 C24         -1.6700    -0.8330    -0.3560 c          1 KQ7       0.705700
     25 O25         -1.0870     0.0260    -1.0000 o          1 KQ7      -0.595100
     26 C26         -3.1110    -0.7100    -0.0410 ca         1 KQ7      -0.352900
     27 C27         -3.7550     0.5110    -0.2810 ca         1 KQ7       0.007000
     28 C28         -5.0940     0.6570    -0.0310 ca         1 KQ7      -0.337300
     29 C29         -5.8110    -0.4560     0.4620 ca         1 KQ7       0.715200
     30 N30         -5.2070    -1.6320     0.6840 nb         1 KQ7      -0.773000
     31 C31         -3.9160    -1.7410     0.4380 ca         1 KQ7       0.492200
     32 N32         -7.1240    -0.4000     0.7270 nu         1 KQ7      -0.876900
     33 C33         -7.9590     0.7630     0.5340 c3         1 KQ7       0.234800
     34 C34         -9.4110     0.4240     0.8180 c3         1 KQ7      -0.081400
     35 C35        -10.3440     1.6160     0.6460 c5         1 KQ7       0.174500
     36 C36        -11.8090     1.2500     0.9490 c5         1 KQ7      -0.093400
     37 C37        -12.6040     2.0870    -0.0450 c5         1 KQ7      -0.110400
     38 C38        -11.6840     2.0460    -1.2600 c5         1 KQ7       0.160800
     39 N39        -10.3250     2.1450    -0.7280 n3         1 KQ7      -0.727600
     40 C40         -9.7720     3.4810    -0.8140 c3         1 KQ7       0.155100
     41 H1           9.3860     3.3280     1.0360 h1         1 KQ7       0.058950
     42 H1A         10.0080     2.0230     2.0450 h1         1 KQ7       0.058950
     43 H3           9.9820    -0.4200     0.8610 h1         1 KQ7       0.058950
     44 H3A          9.4350    -0.3940    -0.8160 h1         1 KQ7       0.058950
     45 H4          11.8990    -0.3970    -0.6350 h1         1 KQ7       0.054950
     46 H4A         11.2340     0.9550    -1.5660 h1         1 KQ7       0.054950
     47 H6          11.2200     3.1210    -0.5350 h1         1 KQ7       0.054950
     48 H6A         11.8780     3.2520     1.1040 h1         1 KQ7       0.054950
     49 H9           5.4980     3.6500     0.7450 h4         1 KQ7       0.019100
     50 H10          4.0120     1.8210     0.0740 ha         1 KQ7       0.143000
     51 H12          7.5100    -0.6250    -0.4120 ha         1 KQ7       0.162000
     52 HN15         3.3130    -0.0310     0.3980 hn         1 KQ7       0.324500
     53 H17          3.8840    -3.4100    -1.0670 ha         1 KQ7       0.165000
     54 H18          2.0390    -4.9700    -1.3140 ha         1 KQ7       0.132000
     55 H21          1.1280    -0.4280     0.3180 ha         1 KQ7       0.147000
     56 H22         -1.0540    -4.8790     0.1170 hc         1 KQ7       0.040700
     57 H22A        -1.4090    -4.1970    -1.4630 hc         1 KQ7       0.040700
     58 H22B        -0.2550    -5.5170    -1.3100 hc         1 KQ7       0.040700
     59 HN23        -1.5710    -2.6220     0.6280 hn         1 KQ7       0.319500
     60 H27         -3.1920     1.3530    -0.6620 ha         1 KQ7       0.155000
     61 H28         -5.5840     1.6030    -0.2100 ha         1 KQ7       0.145000
     62 H31         -3.5140    -2.7320     0.6260 h4         1 KQ7       0.006100
     63 HN32        -7.5420    -1.2400     1.0940 hn         1 KQ7       0.447800
     64 H33         -7.6340     1.5810     1.1880 h1         1 KQ7       0.050200
     65 H33A        -7.8690     1.1200    -0.4970 h1         1 KQ7       0.050200
     66 H34         -9.7340    -0.3830     0.1520 hc         1 KQ7       0.050700
     67 H34A        -9.5060     0.0490     1.8420 hc         1 KQ7       0.050700
     68 H35        -10.0260     2.4070     1.3380 h1         1 KQ7       0.041700
     69 H36        -11.9770     0.1850     0.7580 hc         1 KQ7       0.051200
     70 H36A       -12.0670     1.4390     1.9910 hc         1 KQ7       0.051200
     71 H37        -13.6000     1.6900    -0.2460 hc         1 KQ7       0.050700
     72 H37A       -12.7200     3.1120     0.3150 hc         1 KQ7       0.050700
     73 H38        -11.8150     1.0960    -1.7890 h1         1 KQ7       0.052700
     74 H38A       -11.8740     2.8420    -1.9820 h1         1 KQ7       0.052700
     75 H40         -8.7460     3.4880    -0.4400 h1         1 KQ7       0.030367
     76 H40A        -9.7350     3.8040    -1.8550 h1         1 KQ7       0.030367
     77 H40B       -10.3320     4.2390    -0.2460 h1         1 KQ7       0.030367
@<TRIPOS>BOND
     1     1     2 1   
     2     1     6 1   
     3     1    41 1   
     4     1    42 1   
     5     2     3 1   
     6     2     7 1   
     7     3     4 1   
     8     3    43 1   
     9     3    44 1   
    10     4     5 1   
    11     4    45 1   
    12     4    46 1   
    13     5     6 1   
    14     6    47 1   
    15     6    48 1   
    16     7     8 ar  
    17     7    12 ar  
    18     8     9 ar  
    19     9    10 ar  
    20     9    49 1   
    21    10    11 ar  
    22    10    50 1   
    23    11    12 ar  
    24    11    13 1   
    25    12    51 1   
    26    13    14 2   
    27    13    15 1   
    28    15    16 1   
    29    15    52 1   
    30    16    17 ar  
    31    16    21 ar  
    32    17    18 ar  
    33    17    53 1   
    34    18    19 ar  
    35    18    54 1   
    36    19    20 ar  
    37    19    22 1   
    38    20    21 ar  
    39    20    23 1   
    40    21    55 1   
    41    22    56 1   
    42    22    57 1   
    43    22    58 1   
    44    23    24 1   
    45    23    59 1   
    46    24    25 2   
    47    24    26 1   
    48    26    27 ar  
    49    26    31 ar  
    50    27    28 ar  
    51    27    60 1   
    52    28    29 ar  
    53    28    61 1   
    54    29    30 ar  
    55    29    32 1   
    56    30    31 ar  
    57    31    62 1   
    58    32    33 1   
    59    32    63 1   
    60    33    34 1   
    61    33    64 1   
    62    33    65 1   
    63    34    35 1   
    64    34    66 1   
    65    34    67 1   
    66    35    36 1   
    67    35    39 1   
    68    35    68 1   
    69    36    37 1   
    70    36    69 1   
    71    36    70 1   
    72    37    38 1   
    73    37    71 1   
    74    37    72 1   
    75    38    39 1   
    76    38    73 1   
    77    38    74 1   
    78    39    40 1   
    79    40    75 1   
    80    40    76 1   
    81    40    77 1   
@<TRIPOS>SUBSTRUCTURE
     1 KQ7         1 TEMP              0 ****  ****    0 ROOT
