@<TRIPOS>MOLECULE
KQ8
   52    53     1     0     0
SMALL
No Charge or Current Charge


@<TRIPOS>ATOM
      1 C1          -2.7390    -0.4180     1.1460 c5         1 KQ8       0.153500
      2 C2          -1.9970     0.7640     1.8240 c5         1 KQ8      -0.080400
      3 C3          -0.7880     0.1950    -0.1090 c5         1 KQ8       0.147800
      4 C4          -0.5480     0.4360     1.4050 c5         1 KQ8       0.012300
      5 C5           2.0970     1.2570     1.2110 c2         1 KQ8      -0.180600
      6 C6           3.2080     1.9090     0.8020 ce         1 KQ8       0.099800
      7 C9           3.6390    -0.6980    -1.0580 c3         1 KQ8      -0.243700
      8 C14          2.6740    -0.6820     2.7520 c3         1 KQ8      -0.067100
      9 C13          2.4890    -0.2140     1.2890 c5         1 KQ8      -0.007500
     10 C12          2.9830    -2.0860    -1.1290 c          1 KQ8       0.722000
     11 C           -4.2730    -0.2020     0.9950 c3         1 KQ8       0.193800
     12 C10          4.9580    -0.7050    -1.8870 c3         1 KQ8       0.180300
     13 C7           3.3720     3.4270     0.5080 c          1 KQ8       0.710200
     14 C8           3.8150    -0.3130     0.4410 c5         1 KQ8       0.213500
     15 N1          -4.8960    -1.3100     0.2500 n7         1 KQ8      -0.875300
     16 N2          -2.0380    -0.6220    -0.1670 n7         1 KQ8      -0.881400
     17 N3           4.3270     1.0700     0.5500 nu         1 KQ8      -0.777200
     18 O1           2.4440     4.2070     0.6900 o          1 KQ8      -0.720500
     19 O2           5.4660     0.6300    -2.0130 oh         1 KQ8      -0.691000
     20 O3           1.8930    -2.1830    -1.6700 o          1 KQ8      -0.746000
     21 O4           3.5720    -3.0340    -0.6310 o          1 KQ8      -0.746000
     22 S           -6.4420    -1.1810    -0.2320 s6         1 KQ8       1.243200
     23 S1           0.4900     1.9700     1.6490 ss         1 KQ8      -0.318600
     24 H           -2.6000    -1.3190     1.7610 h1         1 KQ8       0.053700
     25 H10         -2.3320     1.7330     1.4320 hc         1 KQ8       0.042700
     26 H11         -2.1310     0.7790     2.9120 hc         1 KQ8       0.042700
     27 H14         -0.9430     1.1550    -0.6230 h1         1 KQ8       0.077200
     28 H13          0.0590    -0.3030    -0.6030 h1         1 KQ8       0.077200
     29 H1          -0.1620    -0.4420     1.9380 h1         1 KQ8       0.107700
     30 H2           2.9510     0.0130    -1.5310 hc         1 KQ8       0.046700
     31 H23          1.7470    -0.5740     3.3260 hc         1 KQ8       0.015700
     32 H24          2.9690    -1.7370     2.7910 hc         1 KQ8       0.015700
     33 H25          3.4510    -0.0980     3.2610 hc         1 KQ8       0.015700
     34 H4           1.7260    -0.8680     0.8600 hc         1 KQ8       0.073700
     35 H6          -6.9250    -1.2050    -2.2180 hn         1 KQ8       0.473000
     36 H5          -6.8090    -2.6460    -1.5950 hn         1 KQ8       0.473000
     37 H8          -4.7200    -0.1060     1.9940 h1         1 KQ8       0.045700
     38 H9          -4.4250     0.7520     0.4700 h1         1 KQ8       0.045700
     39 H3           5.6920    -1.3340    -1.3600 h1         1 KQ8       0.071700
     40 H17          4.5090    -1.0350     0.8970 h1         1 KQ8       0.059700
     41 H7          -4.4720    -1.3590    -0.6740 hn         1 KQ8       0.503000
     42 H26         -1.7890    -1.6170    -0.2410 hn         1 KQ8       0.420000
     43 H16          4.9630     1.4110    -0.1790 hn         1 KQ8       0.479000
     44 H21          4.9720     1.0460    -2.7520 ho         1 KQ8       0.437000
     45 C11          4.7990    -1.2630    -3.3200 c3         1 KQ8      -0.112100
     46 H19          4.0170    -0.7240    -3.8680 hc         1 KQ8       0.026700
     47 N           -6.2710    -1.7890    -1.7020 n8         1 KQ8      -1.035100
     48 O            4.4560     3.8170     0.0820 o          1 KQ8      -0.720500
     49 O5          -6.7900     0.2200    -0.4190 o          1 KQ8      -0.564500
     50 O6          -7.2710    -2.1200     0.5100 o          1 KQ8      -0.564500
     51 H20          5.7390    -1.1680    -3.8780 hc         1 KQ8       0.026700
     52 H18          4.5360    -2.3270    -3.3040 hc         1 KQ8       0.026700
@<TRIPOS>BOND
     1     1     2 1   
     2     1    11 1   
     3     1    16 1   
     4     1    24 1   
     5     2     4 1   
     6     2    25 1   
     7     2    26 1   
     8     3     4 1   
     9     3    16 1   
    10     3    27 1   
    11     3    28 1   
    12     4    23 1   
    13     4    29 1   
    14     5     6 2   
    15     5     9 1   
    16     5    23 1   
    17     6    13 1   
    18     6    17 1   
    19     7    10 1   
    20     7    12 1   
    21     7    14 1   
    22     7    30 1   
    23     8     9 1   
    24     8    31 1   
    25     8    32 1   
    26     8    33 1   
    27     9    14 1   
    28     9    34 1   
    29    10    20 1   
    30    10    21 1   
    31    11    15 1   
    32    11    37 1   
    33    11    38 1   
    34    12    19 1   
    35    12    39 1   
    36    12    45 1   
    37    13    18 1   
    38    13    48 1   
    39    14    17 1   
    40    14    40 1   
    41    15    22 1   
    42    15    41 1   
    43    16    42 1   
    44    17    43 1   
    45    19    44 1   
    46    22    47 1   
    47    22    49 2   
    48    22    50 2   
    49    35    47 1   
    50    36    47 1   
    51    45    46 1   
    52    45    51 1   
    53    45    52 1   
@<TRIPOS>SUBSTRUCTURE
     1 KQ8         1 TEMP              0 ****  ****    0 ROOT
