@<TRIPOS>MOLECULE
KQ8
   52    53     1     0     0
SMALL
abcg2


@<TRIPOS>ATOM
      1 C1          -2.6100    -1.3250     0.6350 c5         1 KQ8       0.153500
      2 C2          -1.7700    -0.7890     1.8200 c5         1 KQ8      -0.080400
      3 C3          -0.8580    -0.0790    -0.2760 c5         1 KQ8       0.147800
      4 C4          -0.4560    -0.3380     1.1760 c5         1 KQ8       0.012300
      5 C5           1.8240     1.1380     1.2740 c2         1 KQ8      -0.180600
      6 C6           2.2770     1.8590     0.2300 ce         1 KQ8       0.099800
      7 C9           3.5140    -0.9420    -0.4270 c3         1 KQ8      -0.243700
      8 C14          3.6340     0.8540     2.9930 c3         1 KQ8      -0.067100
      9 C13          2.9470     0.2530     1.7680 c5         1 KQ8      -0.007500
     10 C12          3.5170    -2.2630     0.3680 c          1 KQ8       0.722000
     11 C           -3.9300    -0.5730     0.5250 c3         1 KQ8       0.193800
     12 C10          4.4880    -1.0640    -1.6060 c3         1 KQ8       0.180300
     13 C7           1.5800     2.8740    -0.6550 c          1 KQ8       0.710200
     14 C8           3.8640     0.2210     0.5250 c5         1 KQ8       0.213500
     15 N1          -4.6210    -1.0260    -0.6750 n7         1 KQ8      -0.875300
     16 N2          -1.8250    -1.1230    -0.5870 n7         1 KQ8      -0.881400
     17 N3           3.5910     1.5370    -0.0530 nu         1 KQ8      -0.777200
     18 O1           0.5150     3.3630    -0.2500 o          1 KQ8      -0.720500
     19 O2           4.5700     0.1230    -2.3900 oh         1 KQ8      -0.691000
     20 O3           2.4420    -2.8870     0.4720 o          1 KQ8      -0.746000
     21 O4           4.6150    -2.5980     0.8630 o          1 KQ8      -0.746000
     22 S           -6.0870    -0.3720    -1.0290 s6         1 KQ8       1.243200
     23 S1           0.2500     1.1100     2.0200 ss         1 KQ8      -0.318600
     24 H           -2.8290    -2.3880     0.7490 h1         1 KQ8       0.053700
     25 H10         -2.2760     0.0530     2.3030 hc         1 KQ8       0.042700
     26 H11         -1.6110    -1.5460     2.5870 hc         1 KQ8       0.042700
     27 H14         -1.3170     0.9090    -0.3640 h1         1 KQ8       0.077200
     28 H13         -0.0140    -0.1100    -0.9640 h1         1 KQ8       0.077200
     29 H1           0.2830    -1.1450     1.2020 h1         1 KQ8       0.107700
     30 H2           2.5020    -0.7700    -0.8180 hc         1 KQ8       0.046700
     31 H23          2.9250     0.9640     3.8160 hc         1 KQ8       0.015700
     32 H24          4.4510     0.2170     3.3400 hc         1 KQ8       0.015700
     33 H25          4.0450     1.8400     2.7690 hc         1 KQ8       0.015700
     34 H4           2.5830    -0.7420     2.0300 hc         1 KQ8       0.073700
     35 H6          -5.3670     1.5500    -1.9630 hn         1 KQ8       0.473000
     36 H5          -5.7670     1.7620    -0.3550 hn         1 KQ8       0.473000
     37 H8          -4.5420    -0.7790     1.4040 h1         1 KQ8       0.045700
     38 H9          -3.7330     0.5070     0.5010 h1         1 KQ8       0.045700
     39 H3           5.4940    -1.2000    -1.1990 h1         1 KQ8       0.071700
     40 H17          4.9160     0.1390     0.8150 h1         1 KQ8       0.059700
     41 H7          -3.9890    -1.0200    -1.4740 hn         1 KQ8       0.503000
     42 H26         -1.3330    -1.9780    -0.8140 hn         1 KQ8       0.420000
     43 H16          3.8650     1.6740    -1.0140 hn         1 KQ8       0.479000
     44 H21          3.7210     0.2480    -2.8270 ho         1 KQ8       0.437000
     45 C11          4.1600    -2.2510    -2.5040 c3         1 KQ8      -0.112100
     46 H19          3.1430    -2.1780    -2.8980 hc         1 KQ8       0.026700
     47 N           -5.9840     1.2650    -1.2110 n8         1 KQ8      -1.035100
     48 O            2.1610     3.1100    -1.7370 o          1 KQ8      -0.720500
     49 O5          -6.9290    -0.5820     0.1330 o          1 KQ8      -0.564500
     50 O6          -6.4640    -0.9020    -2.3240 o          1 KQ8      -0.564500
     51 H20          4.8490    -2.2950    -3.3490 hc         1 KQ8       0.026700
     52 H18          4.2380    -3.1970    -1.9700 hc         1 KQ8       0.026700
@<TRIPOS>BOND
     1     1     2 1   
     2     1    11 1   
     3     1    16 1   
     4     1    24 1   
     5     2     4 1   
     6     2    25 1   
     7     2    26 1   
     8     3     4 1   
     9     3    16 1   
    10     3    27 1   
    11     3    28 1   
    12     4    23 1   
    13     4    29 1   
    14     5     6 2   
    15     5     9 1   
    16     5    23 1   
    17     6    13 1   
    18     6    17 1   
    19     7    10 1   
    20     7    12 1   
    21     7    14 1   
    22     7    30 1   
    23     8     9 1   
    24     8    31 1   
    25     8    32 1   
    26     8    33 1   
    27     9    14 1   
    28     9    34 1   
    29    10    20 1   
    30    10    21 1   
    31    11    15 1   
    32    11    37 1   
    33    11    38 1   
    34    12    19 1   
    35    12    39 1   
    36    12    45 1   
    37    13    18 1   
    38    13    48 1   
    39    14    17 1   
    40    14    40 1   
    41    15    22 1   
    42    15    41 1   
    43    16    42 1   
    44    17    43 1   
    45    19    44 1   
    46    22    47 1   
    47    22    49 2   
    48    22    50 2   
    49    35    47 1   
    50    36    47 1   
    51    45    46 1   
    52    45    51 1   
    53    45    52 1   
@<TRIPOS>SUBSTRUCTURE
     1 KQ8         1 TEMP              0 ****  ****    0 ROOT
