@<TRIPOS>MOLECULE
KQ9
   25    25     1     0     0
SMALL
bcc


@<TRIPOS>ATOM
      1 C19         68.0750    -2.1600    44.4250 cy         1 KQ9       0.143200
      2 C20         67.2050    -2.1240    45.6810 c3         1 KQ9       0.141800
      3 C21         68.4720    -0.5660    47.0170 c3         1 KQ9       0.150100
      4 C22         67.1040    -2.2100    48.0640 c3         1 KQ9       0.150100
      5 C23         67.2910    -2.4600    43.1290 cy         1 KQ9      -0.077400
      6 N7          69.2170    -3.0540    44.5260 n8         1 KQ9      -0.865800
      7 C25         68.5070    -0.8190    43.7790 cy         1 KQ9      -0.077400
      8 C24         68.1140    -1.3820    42.4030 cy         1 KQ9      -0.082400
      9 N8          67.9310    -1.9060    46.9170 n3         1 KQ9      -0.721600
     10 H1          66.4010    -1.3780    45.5440 h1         1 KQ9       0.034200
     11 H2          66.7100    -3.0990    45.7550 h1         1 KQ9       0.034200
     12 H3          68.9670    -0.4400    47.9810 h1         1 KQ9       0.031367
     13 H4          69.2200    -0.3850    46.2460 h1         1 KQ9       0.031367
     14 H5          67.7020     0.2170    46.9290 h1         1 KQ9       0.031367
     15 H6          67.6820    -2.1020    48.9830 h1         1 KQ9       0.031367
     16 H7          66.2200    -1.5580    48.1490 h1         1 KQ9       0.031367
     17 H8          66.7510    -3.2410    48.0120 h1         1 KQ9       0.031367
     18 H9          66.2410    -2.1750    43.2220 hc         1 KQ9       0.048450
     19 H10         67.3400    -3.4850    42.7560 hc         1 KQ9       0.048450
     20 H11         69.7470    -2.8100    45.3550 hn         1 KQ9       0.341800
     21 H12         68.8810    -3.9970    44.6940 hn         1 KQ9       0.341800
     22 H14         69.5450    -0.5140    43.9250 hc         1 KQ9       0.048450
     23 H15         67.8580     0.0050    44.0820 hc         1 KQ9       0.048450
     24 H16         68.9660    -1.8020    41.8680 hc         1 KQ9       0.052200
     25 H17         67.5770    -0.7160    41.7270 hc         1 KQ9       0.052200
@<TRIPOS>BOND
     1     1     2 1   
     2     1     5 1   
     3     1     6 1   
     4     1     7 1   
     5     2     9 1   
     6     2    10 1   
     7     2    11 1   
     8     3     9 1   
     9     3    12 1   
    10     3    13 1   
    11     3    14 1   
    12     4     9 1   
    13     4    15 1   
    14     4    16 1   
    15     4    17 1   
    16     5     8 1   
    17     5    18 1   
    18     5    19 1   
    19     6    20 1   
    20     6    21 1   
    21     7     8 1   
    22     7    22 1   
    23     7    23 1   
    24     8    24 1   
    25     8    25 1   
@<TRIPOS>SUBSTRUCTURE
     1 KQ9         1 TEMP              0 ****  ****    0 ROOT
