@<TRIPOS>MOLECULE
KQ9
   25    25     1     0     0
SMALL
No Charge or Current Charge


@<TRIPOS>ATOM
      1 C19         68.0380    -2.1010    44.3740 cy         1 KQ9       0.143200
      2 C20         67.1970    -2.0840    45.6890 c3         1 KQ9       0.141800
      3 C21         68.5910    -0.5920    47.1000 c3         1 KQ9       0.150100
      4 C22         67.1370    -2.2660    48.1490 c3         1 KQ9       0.150100
      5 C23         67.2580    -2.4560    43.0550 cy         1 KQ9      -0.077400
      6 N7          69.2300    -2.9120    44.6460 n8         1 KQ9      -0.976200
      7 C25         68.3100    -0.7180    43.6730 cy         1 KQ9      -0.077400
      8 C24         68.2300    -1.4820    42.3110 cy         1 KQ9      -0.082400
      9 N8          67.9560    -1.9240    46.9650 n3         1 KQ9      -0.721600
     10 H1          66.4420    -1.2910    45.6010 h1         1 KQ9       0.034200
     11 H2          66.6510    -3.0380    45.7140 h1         1 KQ9       0.034200
     12 H3          69.1430    -0.5210    48.0470 h1         1 KQ9       0.031367
     13 H4          69.3060    -0.4090    46.2890 h1         1 KQ9       0.031367
     14 H5          67.8360     0.2060    47.0830 h1         1 KQ9       0.031367
     15 H6          67.7370    -2.2110    49.0670 h1         1 KQ9       0.031367
     16 H7          66.2870    -1.5770    48.2500 h1         1 KQ9       0.031367
     17 H8          66.7420    -3.2880    48.0670 h1         1 KQ9       0.031367
     18 H9          66.2100    -2.1330    43.0490 hc         1 KQ9       0.048450
     19 H10         67.2950    -3.5030    42.7380 hc         1 KQ9       0.048450
     20 H11         69.3420    -2.8870    45.6700 hn         1 KQ9       0.397000
     21 H12         69.0220    -3.8980    44.4640 hn         1 KQ9       0.397000
     22 H14         69.2720    -0.2430    43.8940 hc         1 KQ9       0.048450
     23 H15         67.5180     0.0270    43.8160 hc         1 KQ9       0.048450
     24 H16         69.1730    -1.9360    41.9840 hc         1 KQ9       0.052200
     25 H17         67.8010    -0.9240    41.4720 hc         1 KQ9       0.052200
@<TRIPOS>BOND
     1     1     2 1   
     2     1     5 1   
     3     1     6 1   
     4     1     7 1   
     5     2     9 1   
     6     2    10 1   
     7     2    11 1   
     8     3     9 1   
     9     3    12 1   
    10     3    13 1   
    11     3    14 1   
    12     4     9 1   
    13     4    15 1   
    14     4    16 1   
    15     4    17 1   
    16     5     8 1   
    17     5    18 1   
    18     5    19 1   
    19     6    20 1   
    20     6    21 1   
    21     7     8 1   
    22     7    22 1   
    23     7    23 1   
    24     8    24 1   
    25     8    25 1   
@<TRIPOS>SUBSTRUCTURE
     1 KQ9         1 TEMP              0 ****  ****    0 ROOT
