@<TRIPOS>MOLECULE
KQC
   23    23     1     0     0
SMALL
No Charge or Current Charge


@<TRIPOS>ATOM
      1 C2         107.5400   104.7110    95.5420 c6         1 KQC       0.150300
      2 C3         106.8710   103.6590    96.4730 c6         1 KQC       0.105300
      3 C5         107.0880   105.3450    98.3820 c6         1 KQC       0.158300
      4 C1         107.2500   106.1520    96.1060 c6         1 KQC       0.402300
      5 C4         107.3430   103.8750    97.9400 c6         1 KQC       0.125300
      6 C6         107.6300   105.6360    99.8200 c3         1 KQC       0.170600
      7 F4         106.6060   103.0070    98.7770 f          1 KQC      -0.266000
      8 O1         107.9670   107.1540    95.4130 oh         1 KQC      -0.679000
      9 O2         107.0660   104.5070    94.1910 oh         1 KQC      -0.703000
     10 O3         107.1610   102.3230    96.0050 oh         1 KQC      -0.717000
     11 O5         107.7290   106.2580    97.4500 os         1 KQC      -0.474000
     12 O6         107.4420   107.0050   100.2320 oh         1 KQC      -0.709000
     13 H1         108.6280   104.5540    95.5810 h1         1 KQC       0.070700
     14 H2         105.7830   103.8290    96.4470 h1         1 KQC       0.052700
     15 H3         106.0050   105.5420    98.3790 h1         1 KQC       0.058700
     16 H4         106.1710   106.3680    96.0750 h2         1 KQC       0.029700
     17 H5         108.4090   103.6250    98.0440 h1         1 KQC       0.082700
     18 H6         107.1200   104.9620   100.5220 h1         1 KQC       0.035700
     19 H7         108.6980   105.3800    99.8400 h1         1 KQC       0.035700
     20 H8         108.3790   107.6600    96.1470 ho         1 KQC       0.522000
     21 H9         107.0070   103.5240    94.1050 ho         1 KQC       0.521000
     22 H10        106.7890   101.6980    96.6740 ho         1 KQC       0.520000
     23 H11        107.8740   107.1030   101.1130 ho         1 KQC       0.507000
@<TRIPOS>BOND
     1     1     2 1   
     2     1     4 1   
     3     1     9 1   
     4     1    13 1   
     5     2     5 1   
     6     2    10 1   
     7     2    14 1   
     8     3     5 1   
     9     3     6 1   
    10     3    11 1   
    11     3    15 1   
    12     4     8 1   
    13     4    11 1   
    14     4    16 1   
    15     5     7 1   
    16     5    17 1   
    17     6    12 1   
    18     6    18 1   
    19     6    19 1   
    20     8    20 1   
    21     9    21 1   
    22    10    22 1   
    23    12    23 1   
@<TRIPOS>SUBSTRUCTURE
     1 KQC         1 TEMP              0 ****  ****    0 ROOT
