@<TRIPOS>MOLECULE
KQC
   23    23     1     0     0
SMALL
abcg2


@<TRIPOS>ATOM
      1 C2         107.5730   104.6790    95.6410 c6         1 KQC       0.150300
      2 C3         106.8820   103.6780    96.5640 c6         1 KQC       0.105300
      3 C5         107.1650   105.3310    98.4190 c6         1 KQC       0.158300
      4 C1         107.3850   106.0870    96.1930 c6         1 KQC       0.402300
      5 C4         107.3330   103.8750    98.0010 c6         1 KQC       0.125300
      6 C6         107.6950   105.5910    99.8140 c3         1 KQC       0.170600
      7 F4         106.5550   103.0620    98.8270 f          1 KQC      -0.266000
      8 O1         108.1050   106.9690    95.4220 oh         1 KQC      -0.679000
      9 O2         107.0340   104.6340    94.3480 oh         1 KQC      -0.703000
     10 O3         107.1810   102.3900    96.0820 oh         1 KQC      -0.717000
     11 O5         107.8830   106.1360    97.5120 os         1 KQC      -0.474000
     12 O6         107.4170   106.9260   100.1560 oh         1 KQC      -0.709000
     13 H1         108.6540   104.4630    95.6370 h1         1 KQC       0.070700
     14 H2         105.7990   103.8730    96.5220 h1         1 KQC       0.052700
     15 H3         106.0920   105.5830    98.3910 h1         1 KQC       0.058700
     16 H4         106.3080   106.3360    96.2040 h2         1 KQC       0.029700
     17 H5         108.3770   103.5640    98.1200 h1         1 KQC       0.082700
     18 H6         107.2150   104.8860   100.5010 h1         1 KQC       0.035700
     19 H7         108.7730   105.3770    99.8320 h1         1 KQC       0.035700
     20 H8         107.7910   107.8650    95.5830 ho         1 KQC       0.522000
     21 H9         107.1200   103.7320    94.0210 ho         1 KQC       0.521000
     22 H10        106.5200   101.7710    96.4060 ho         1 KQC       0.520000
     23 H11        107.6990   107.0680   101.0640 ho         1 KQC       0.507000
@<TRIPOS>BOND
     1     1     2 1   
     2     1     4 1   
     3     1     9 1   
     4     1    13 1   
     5     2     5 1   
     6     2    10 1   
     7     2    14 1   
     8     3     5 1   
     9     3     6 1   
    10     3    11 1   
    11     3    15 1   
    12     4     8 1   
    13     4    11 1   
    14     4    16 1   
    15     5     7 1   
    16     5    17 1   
    17     6    12 1   
    18     6    18 1   
    19     6    19 1   
    20     8    20 1   
    21     9    21 1   
    22    10    22 1   
    23    12    23 1   
@<TRIPOS>SUBSTRUCTURE
     1 KQC         1 TEMP              0 ****  ****    0 ROOT
