@<TRIPOS>MOLECULE
KQD
  124   134     1     0     0
SMALL
No Charge or Current Charge


@<TRIPOS>ATOM
      1 C8          -2.4050    -1.0460     0.3510 c          1 KQD       0.615700
      2 C5           1.2060     0.1170     0.8450 ca         1 KQD      -0.082750
      3 C6          -0.0280    -0.5290     1.0290 ca         1 KQD      -0.082750
      4 C2          -0.8820     0.5250    -0.9830 ca         1 KQD      -0.082750
      5 C4           1.4170     0.9620    -0.2660 ca         1 KQD      -0.128600
      6 C1          -1.0930    -0.3220     0.1270 ca         1 KQD      -0.128600
      7 C3           0.3520     1.1710    -1.1670 ca         1 KQD      -0.082750
      8 O9           2.7350     2.8500    -0.8700 o          1 KQD      -0.591600
      9 C13          5.2180     1.7830    -0.0970 c5         1 KQD       0.106250
     10 C14          6.2720     0.6530    -0.2680 c5         1 KQD      -0.157200
     11 C15          5.5360    -0.5800     0.3400 c5         1 KQD      -0.157200
     12 C16          4.1330    -0.4160    -0.2900 c5         1 KQD       0.106250
     13 C17         -4.9020    -1.1350     0.0340 c5         1 KQD       0.106250
     14 C36          7.5480     0.9910     0.5400 c          1 KQD       0.618350
     15 N38          8.6440     0.9580    -0.2920 ns         1 KQD      -0.479150
     16 C40          9.9960     1.1730     0.1480 cx         1 KQD       0.057450
     17 C41         11.1110     0.5950    -0.6950 cx         1 KQD      -0.089400
     18 C43         12.4060     1.3360    -0.9290 ca         1 KQD      -0.047300
     19 C48         13.0700     1.2000    -2.1650 ca         1 KQD      -0.104750
     20 C47         14.2760     1.8800    -2.4080 ca         1 KQD      -0.107625
     21 C46         14.8320     2.7040    -1.4160 ca         1 KQD      -0.109250
     22 C45         14.1800     2.8460    -0.1810 ca         1 KQD      -0.107625
     23 C44         12.9730     2.1660     0.0630 ca         1 KQD      -0.104750
     24 C42         10.7690    -0.0250     0.6420 cx         1 KQD      -0.111650
     25 C21          6.1720    -1.9050    -0.1410 c          1 KQD       0.618350
     26 O22          6.3520    -2.2570    -1.2990 o          1 KQD      -0.592850
     27 N23          6.5480    -2.6600     0.9470 ns         1 KQD      -0.479150
     28 C24          7.1850    -3.9450     0.8550 cx         1 KQD       0.057450
     29 C25          7.2180    -4.8040     2.0940 cx         1 KQD      -0.111650
     30 C26          6.3060    -5.1730     0.9450 cx         1 KQD      -0.089400
     31 C28          6.5440    -6.3940     0.0900 ca         1 KQD      -0.047300
     32 C29          7.8470    -6.7980    -0.2790 ca         1 KQD      -0.104750
     33 C30          8.0400    -7.9380    -1.0780 ca         1 KQD      -0.107625
     34 C31          6.9370    -8.6870    -1.5170 ca         1 KQD      -0.109250
     35 C32          5.6380    -8.2940    -1.1560 ca         1 KQD      -0.107625
     36 C33          5.4440    -7.1530    -0.3570 ca         1 KQD      -0.104750
     37 N11          3.9300     1.0420    -0.1190 n          1 KQD      -0.413800
     38 O10         -2.4160    -2.1910     0.7880 o          1 KQD      -0.591600
     39 N12         -3.6110    -0.4150    -0.0240 n          1 KQD      -0.413800
     40 C20         -3.7840     1.0610     0.0020 c5         1 KQD       0.106250
     41 C18         -5.8750    -0.0430    -0.4720 c5         1 KQD      -0.157200
     42 C62         -7.3130    -0.3650    -0.0020 c          1 KQD       0.618350
     43 O64         -7.6880    -0.5490     1.1470 o          1 KQD      -0.592850
     44 N66         -8.1590    -0.3930    -1.0890 ns         1 KQD      -0.479150
     45 C70         -9.5720    -0.6440    -1.0030 cx         1 KQD       0.057450
     46 C71        -10.3030    -0.9850    -2.2770 cx         1 KQD      -0.111650
     47 C72        -10.0500    -2.0590    -1.2430 cx         1 KQD      -0.089400
     48 C76        -11.1650    -2.6760    -0.4340 ca         1 KQD      -0.047300
     49 C77        -11.1280    -4.0540    -0.1370 ca         1 KQD      -0.104750
     50 C78        -12.1530    -4.6530     0.6150 ca         1 KQD      -0.107625
     51 C79        -13.2290    -3.8790     1.0780 ca         1 KQD      -0.109250
     52 C80        -13.2780    -2.5050     0.7890 ca         1 KQD      -0.107625
     53 C81        -12.2520    -1.9060     0.0370 ca         1 KQD      -0.104750
     54 C19         -5.3080     1.2080     0.2670 c5         1 KQD      -0.157200
     55 C63         -5.8340     2.5160    -0.3720 c          1 KQD       0.618350
     56 O65         -5.7370     2.8540    -1.5430 o          1 KQD      -0.592850
     57 N67         -6.4800     3.2690     0.5830 ns         1 KQD      -0.479150
     58 C73         -7.1340     4.5200     0.3140 cx         1 KQD       0.057450
     59 C75         -8.5750     4.4740    -0.1280 cx         1 KQD      -0.111650
     60 C74         -8.2290     4.9600     1.2610 cx         1 KQD      -0.089400
     61 C82         -8.4010     6.4020     1.6740 ca         1 KQD      -0.047300
     62 C83         -8.8540     6.7040     2.9740 ca         1 KQD      -0.104750
     63 C84         -9.0210     8.0380     3.3830 ca         1 KQD      -0.107625
     64 C85         -8.7360     9.0870     2.4940 ca         1 KQD      -0.109250
     65 C86         -8.2840     8.7990     1.1960 ca         1 KQD      -0.107625
     66 C87         -8.1170     7.4650     0.7870 ca         1 KQD      -0.104750
     67 H1           1.9900    -0.0240     1.5860 ha         1 KQD       0.127500
     68 H2          -0.1650    -1.1790     1.8910 ha         1 KQD       0.127500
     69 H3          -1.6600     0.6640    -1.7290 ha         1 KQD       0.127500
     70 H4           0.4900     1.8210    -2.0280 ha         1 KQD       0.127500
     71 H5           5.3270     2.3070     0.8620 h1         1 KQD       0.062700
     72 H6           5.2930     2.5270    -0.9010 h1         1 KQD       0.062700
     73 H7           6.5000     0.5020    -1.3310 hc         1 KQD       0.090950
     74 H8           5.4820    -0.5300     1.4350 hc         1 KQD       0.090950
     75 H9           4.1230    -0.6820    -1.3560 h1         1 KQD       0.062700
     76 H10          3.3910    -1.0380     0.2240 h1         1 KQD       0.062700
     77 H11         -4.9100    -2.0260    -0.6090 h1         1 KQD       0.062700
     78 H12         -5.1250    -1.4460     1.0640 h1         1 KQD       0.062700
     79 H13          8.4690     0.7530    -1.2680 hn         1 KQD       0.321750
     80 H14         10.1600     2.1320     0.6420 h1         1 KQD       0.092700
     81 H15         10.8040     0.0240    -1.5680 hc         1 KQD       0.085450
     82 H16         12.6520     0.5660    -2.9430 ha         1 KQD       0.110500
     83 H17         14.7800     1.7680    -3.3660 ha         1 KQD       0.112250
     84 H18         15.7650     3.2300    -1.6040 ha         1 KQD       0.113250
     85 H19         14.6090     3.4840     0.5890 ha         1 KQD       0.112250
     86 H20         12.4860     2.2910     1.0260 ha         1 KQD       0.110500
     87 H21         11.4550     0.1250     1.4710 hc         1 KQD       0.084575
     88 H22         10.2690    -0.9900     0.6380 hc         1 KQD       0.084575
     89 H23          6.3650    -2.2620     1.8610 hn         1 KQD       0.321750
     90 H24          8.0490    -3.9700     0.1880 h1         1 KQD       0.092700
     91 H25          8.1040    -5.4110     2.2650 hc         1 KQD       0.084575
     92 H26          6.7560    -4.4190     3.0000 hc         1 KQD       0.084575
     93 H27          5.2470    -4.9860     1.1060 hc         1 KQD       0.085450
     94 H28          8.7150    -6.2330     0.0500 ha         1 KQD       0.110500
     95 H29          9.0470    -8.2410    -1.3560 ha         1 KQD       0.112250
     96 H30          7.0870    -9.5690    -2.1350 ha         1 KQD       0.113250
     97 H31          4.7810    -8.8720    -1.4950 ha         1 KQD       0.112250
     98 H32          4.4320    -6.8610    -0.0860 ha         1 KQD       0.110500
     99 H33         -3.1820     1.5430     0.7850 h1         1 KQD       0.062700
    100 H34         -3.5100     1.5000    -0.9660 h1         1 KQD       0.062700
    101 H35         -5.8170     0.0600    -1.5630 hc         1 KQD       0.090950
    102 H36         -7.7420    -0.2100    -1.9940 hn         1 KQD       0.321750
    103 H37        -10.0900    -0.0380    -0.2580 h1         1 KQD       0.092700
    104 H38        -11.3170    -0.6100    -2.3930 hc         1 KQD       0.084575
    105 H39         -9.7330    -1.0320    -3.2010 hc         1 KQD       0.084575
    106 H40         -9.2780    -2.7830    -1.4940 hc         1 KQD       0.085450
    107 H41        -10.3010    -4.6660    -0.4900 ha         1 KQD       0.110500
    108 H42        -12.1140    -5.7170     0.8380 ha         1 KQD       0.112250
    109 H43        -14.0230    -4.3420     1.6610 ha         1 KQD       0.113250
    110 H44        -14.1100    -1.9040     1.1470 ha         1 KQD       0.112250
    111 H45        -12.3100    -0.8420    -0.1750 ha         1 KQD       0.110500
    112 H46         -5.5180     1.1740     1.3430 hc         1 KQD       0.090950
    113 H47         -6.4980     2.8930     1.5230 hn         1 KQD       0.321750
    114 H48         -6.4850     5.2820    -0.1210 h1         1 KQD       0.092700
    115 H49         -8.9010     5.2040    -0.8650 hc         1 KQD       0.084575
    116 H50         -9.0490     3.5000    -0.2190 hc         1 KQD       0.084575
    117 H51         -8.4650     4.2730     2.0710 hc         1 KQD       0.085450
    118 H52         -9.0790     5.9020     3.6740 ha         1 KQD       0.110500
    119 H53         -9.3720     8.2590     4.3890 ha         1 KQD       0.112250
    120 H54         -8.8660    10.1200     2.8100 ha         1 KQD       0.113250
    121 H55         -8.0630     9.6110     0.5060 ha         1 KQD       0.112250
    122 H56         -7.7660     7.2650    -0.2220 ha         1 KQD       0.110500
    123 C7           2.7260     1.6900    -0.4770 c          1 KQD       0.615700
    124 O37          7.6190     1.2290     1.7380 o          1 KQD      -0.592850
@<TRIPOS>BOND
     1     1     6 1   
     2     1    38 2   
     3     1    39 1   
     4     2     3 ar  
     5     2     5 ar  
     6     2    67 1   
     7     3     6 ar  
     8     3    68 1   
     9     4     6 ar  
    10     4     7 ar  
    11     4    69 1   
    12     5     7 ar  
    13     5   123 1   
    14     7    70 1   
    15     8   123 2   
    16     9    10 1   
    17     9    37 1   
    18     9    71 1   
    19     9    72 1   
    20    10    11 1   
    21    10    14 1   
    22    10    73 1   
    23    11    12 1   
    24    11    25 1   
    25    11    74 1   
    26    12    37 1   
    27    12    75 1   
    28    12    76 1   
    29    13    39 1   
    30    13    41 1   
    31    13    77 1   
    32    13    78 1   
    33    14    15 1   
    34    14   124 2   
    35    15    16 1   
    36    15    79 1   
    37    16    17 1   
    38    16    24 1   
    39    16    80 1   
    40    17    18 1   
    41    17    24 1   
    42    17    81 1   
    43    18    19 ar  
    44    18    23 ar  
    45    19    20 ar  
    46    19    82 1   
    47    20    21 ar  
    48    20    83 1   
    49    21    22 ar  
    50    21    84 1   
    51    22    23 ar  
    52    22    85 1   
    53    23    86 1   
    54    24    87 1   
    55    24    88 1   
    56    25    26 2   
    57    25    27 1   
    58    27    28 1   
    59    27    89 1   
    60    28    29 1   
    61    28    30 1   
    62    28    90 1   
    63    29    30 1   
    64    29    91 1   
    65    29    92 1   
    66    30    31 1   
    67    30    93 1   
    68    31    32 ar  
    69    31    36 ar  
    70    32    33 ar  
    71    32    94 1   
    72    33    34 ar  
    73    33    95 1   
    74    34    35 ar  
    75    34    96 1   
    76    35    36 ar  
    77    35    97 1   
    78    36    98 1   
    79    37   123 1   
    80    39    40 1   
    81    40    54 1   
    82    40    99 1   
    83    40   100 1   
    84    41    42 1   
    85    41    54 1   
    86    41   101 1   
    87    42    43 2   
    88    42    44 1   
    89    44    45 1   
    90    44   102 1   
    91    45    46 1   
    92    45    47 1   
    93    45   103 1   
    94    46    47 1   
    95    46   104 1   
    96    46   105 1   
    97    47    48 1   
    98    47   106 1   
    99    48    49 ar  
   100    48    53 ar  
   101    49    50 ar  
   102    49   107 1   
   103    50    51 ar  
   104    50   108 1   
   105    51    52 ar  
   106    51   109 1   
   107    52    53 ar  
   108    52   110 1   
   109    53   111 1   
   110    54    55 1   
   111    54   112 1   
   112    55    56 2   
   113    55    57 1   
   114    57    58 1   
   115    57   113 1   
   116    58    59 1   
   117    58    60 1   
   118    58   114 1   
   119    59    60 1   
   120    59   115 1   
   121    59   116 1   
   122    60    61 1   
   123    60   117 1   
   124    61    62 ar  
   125    61    66 ar  
   126    62    63 ar  
   127    62   118 1   
   128    63    64 ar  
   129    63   119 1   
   130    64    65 ar  
   131    64   120 1   
   132    65    66 ar  
   133    65   121 1   
   134    66   122 1   
@<TRIPOS>SUBSTRUCTURE
     1 KQD         1 TEMP              0 ****  ****    0 ROOT
