@<TRIPOS>MOLECULE
KQD
  124   134     1     0     0
SMALL
bcc


@<TRIPOS>ATOM
      1 C8          -2.2810    -1.0660     0.8760 c          1 KQD       0.682700
      2 C5           1.1190     0.1380     1.9450 ca         1 KQD      -0.100750
      3 C6          -0.1470    -0.4240     1.9660 ca         1 KQD      -0.100750
      4 C2          -0.4740     0.2240    -0.3250 ca         1 KQD      -0.100750
      5 C4           1.5970     0.7410     0.7860 ca         1 KQD      -0.128600
      6 C1          -0.9560    -0.3770     0.8340 ca         1 KQD      -0.128600
      7 C3           0.7930     0.7870    -0.3470 ca         1 KQD      -0.100750
      8 O9           3.0140     2.6230     0.5970 o          1 KQD      -0.591600
      9 C13          5.3610     1.1490     0.7700 c5         1 KQD       0.106250
     10 C14          6.1660    -0.0760     0.3390 c5         1 KQD      -0.157200
     11 C15          5.4590    -1.2160     1.0530 c5         1 KQD      -0.157200
     12 C16          3.9820    -0.8430     0.8940 c5         1 KQD       0.106250
     13 C17         -4.6480    -1.0630     0.3580 c5         1 KQD       0.106250
     14 C36          7.6490    -0.0150     0.6370 c          1 KQD       0.685350
     15 N38          8.2770     1.0710     0.1490 ns         1 KQD      -0.546150
     16 C40          9.6790     1.2840     0.2810 cx         1 KQD       0.057450
     17 C41         10.4160     1.7730    -0.9350 cx         1 KQD      -0.089400
     18 C43         11.4590     2.8220    -0.8360 ca         1 KQD      -0.047300
     19 C48         11.5660     3.7760    -1.8470 ca         1 KQD      -0.122750
     20 C47         12.5260     4.7760    -1.7890 ca         1 KQD      -0.125625
     21 C46         13.4000     4.8430    -0.7130 ca         1 KQD      -0.127250
     22 C45         13.3040     3.8980     0.3010 ca         1 KQD      -0.125625
     23 C44         12.3460     2.8970     0.2390 ca         1 KQD      -0.122750
     24 C42         10.6270     0.3760    -0.4210 cx         1 KQD      -0.111650
     25 C21          5.7520    -2.5780     0.4590 c          1 KQD       0.685350
     26 O22          5.9010    -2.7420    -0.7410 o          1 KQD      -0.592850
     27 N23          5.7740    -3.5910     1.3410 ns         1 KQD      -0.546150
     28 C24          5.9440    -4.9430     0.9330 cx         1 KQD       0.057450
     29 C25          5.1960    -5.9970     1.6690 cx         1 KQD      -0.111650
     30 C26          4.7880    -5.6430     0.2660 cx         1 KQD      -0.089400
     31 C28          5.0080    -6.5490    -0.8840 ca         1 KQD      -0.047300
     32 C29          6.0520    -7.4750    -0.9210 ca         1 KQD      -0.122750
     33 C30          6.2370    -8.2930    -2.0270 ca         1 KQD      -0.125625
     34 C31          5.3800    -8.2080    -3.1170 ca         1 KQD      -0.127250
     35 C32          4.3360    -7.2940    -3.0900 ca         1 KQD      -0.125625
     36 C33          4.1550    -6.4740    -1.9840 ca         1 KQD      -0.122750
     37 N11          4.0090     0.6190     0.8830 n          1 KQD      -0.480800
     38 O10         -2.3770    -2.1880     1.3580 o          1 KQD      -0.591600
     39 N12         -3.3410    -0.4210     0.3610 n          1 KQD      -0.480800
     40 C20         -3.4220     0.9970     0.0180 c5         1 KQD       0.106250
     41 C18         -5.5550     0.0050    -0.2560 c5         1 KQD      -0.157200
     42 C62         -7.0190    -0.0860     0.1180 c          1 KQD       0.685350
     43 O64         -7.6600     0.9010     0.4370 o          1 KQD      -0.592850
     44 N66         -7.5590    -1.3170     0.0390 ns         1 KQD      -0.546150
     45 C70         -8.9200    -1.5770     0.3660 cx         1 KQD       0.057450
     46 C71        -10.0010    -1.1040    -0.5420 cx         1 KQD      -0.111650
     47 C72         -9.6620    -2.5690    -0.4860 cx         1 KQD      -0.089400
     48 C76        -10.5740    -3.5680     0.1220 ca         1 KQD      -0.047300
     49 C77        -10.6400    -4.8510    -0.4200 ca         1 KQD      -0.122750
     50 C78        -11.4790    -5.8150     0.1230 ca         1 KQD      -0.125625
     51 C79        -12.2700    -5.5120     1.2220 ca         1 KQD      -0.127250
     52 C80        -12.2130    -4.2370     1.7710 ca         1 KQD      -0.125625
     53 C81        -11.3760    -3.2740     1.2260 ca         1 KQD      -0.122750
     54 C19         -4.9070     1.3060     0.2010 c5         1 KQD      -0.157200
     55 C63         -5.3440     2.5080    -0.6110 c          1 KQD       0.685350
     56 O65         -5.4210     2.4660    -1.8290 o          1 KQD      -0.592850
     57 N67         -5.5960     3.6170     0.1020 ns         1 KQD      -0.546150
     58 C73         -6.0150     4.8370    -0.4980 cx         1 KQD       0.057450
     59 C75         -7.3640     4.9170    -1.1230 cx         1 KQD      -0.111650
     60 C74         -7.1080     5.6100     0.1880 cx         1 KQD      -0.089400
     61 C82         -7.0450     7.0870     0.2980 ca         1 KQD      -0.047300
     62 C83         -7.4700     7.7050     1.4740 ca         1 KQD      -0.122750
     63 C84         -7.4230     9.0850     1.6150 ca         1 KQD      -0.125625
     64 C85         -6.9460     9.8770     0.5800 ca         1 KQD      -0.127250
     65 C86         -6.5210     9.2740    -0.5970 ca         1 KQD      -0.125625
     66 C87         -6.5710     7.8940    -0.7370 ca         1 KQD      -0.122750
     67 H1           1.7310     0.1090     2.8380 ha         1 KQD       0.145500
     68 H2          -0.5070    -0.8940     2.8710 ha         1 KQD       0.145500
     69 H3          -1.0740     0.2450    -1.2250 ha         1 KQD       0.145500
     70 H4           1.1570     1.2470    -1.2560 ha         1 KQD       0.145500
     71 H5           5.7050     1.5410     1.7320 h1         1 KQD       0.062700
     72 H6           5.3970     1.9600     0.0420 h1         1 KQD       0.062700
     73 H7           6.0480    -0.2080    -0.7430 hc         1 KQD       0.090950
     74 H8           5.7140    -1.2000     2.1160 hc         1 KQD       0.090950
     75 H9           3.5720    -1.2280    -0.0430 h1         1 KQD       0.062700
     76 H10          3.3840    -1.2360     1.7140 h1         1 KQD       0.062700
     77 H11         -4.6290    -1.9850    -0.2250 h1         1 KQD       0.062700
     78 H12         -4.9570    -1.3140     1.3770 h1         1 KQD       0.062700
     79 H13          7.7380     1.7780    -0.3270 hn         1 KQD       0.321750
     80 H14         10.0000     1.6880     1.2380 h1         1 KQD       0.092700
     81 H15          9.8090     1.8400    -1.8320 hc         1 KQD       0.085450
     82 H16         10.8880     3.7360    -2.6920 ha         1 KQD       0.128500
     83 H17         12.5910     5.5030    -2.5880 ha         1 KQD       0.130250
     84 H18         14.1500     5.6220    -0.6640 ha         1 KQD       0.131250
     85 H19         13.9800     3.9390     1.1450 ha         1 KQD       0.130250
     86 H20         12.2980     2.1710     1.0420 ha         1 KQD       0.128500
     87 H21         11.5620     0.1450     0.0740 hc         1 KQD       0.084575
     88 H22         10.2170    -0.4350    -1.0080 hc         1 KQD       0.084575
     89 H23          5.7080    -3.3900     2.3260 hn         1 KQD       0.321750
     90 H24          6.9360    -5.2000     0.5710 h1         1 KQD       0.092700
     91 H25          5.6950    -6.9430     1.8420 hc         1 KQD       0.084575
     92 H26          4.5340    -5.6910     2.4700 hc         1 KQD       0.084575
     93 H27          3.8890    -5.0400     0.1910 hc         1 KQD       0.085450
     94 H28          6.7330    -7.5690    -0.0840 ha         1 KQD       0.128500
     95 H29          7.0550    -9.0020    -2.0340 ha         1 KQD       0.130250
     96 H30          5.5250    -8.8490    -3.9770 ha         1 KQD       0.131250
     97 H31          3.6600    -7.2160    -3.9310 ha         1 KQD       0.130250
     98 H32          3.3370    -5.7620    -1.9780 ha         1 KQD       0.128500
     99 H33         -2.7900     1.6010     0.6670 h1         1 KQD       0.062700
    100 H34         -3.1220     1.1730    -1.0170 h1         1 KQD       0.062700
    101 H35         -5.4880    -0.0600    -1.3480 hc         1 KQD       0.090950
    102 H36         -6.9710    -2.1040    -0.1890 hn         1 KQD       0.321750
    103 H37         -9.1430    -1.5940     1.4290 h1         1 KQD       0.092700
    104 H38        -10.9280    -0.7730    -0.0910 hc         1 KQD       0.084575
    105 H39         -9.7140    -0.5660    -1.4370 hc         1 KQD       0.084575
    106 H40         -9.1060    -2.9410    -1.3400 hc         1 KQD       0.085450
    107 H41        -10.0290    -5.0980    -1.2800 ha         1 KQD       0.128500
    108 H42        -11.5130    -6.8040    -0.3160 ha         1 KQD       0.130250
    109 H43        -12.9260    -6.2600     1.6480 ha         1 KQD       0.131250
    110 H44        -12.8240    -3.9890     2.6290 ha         1 KQD       0.130250
    111 H45        -11.3550    -2.2860     1.6710 ha         1 KQD       0.128500
    112 H46         -5.1120     1.4620     1.2640 hc         1 KQD       0.090950
    113 H47         -5.4770     3.5910     1.1020 hn         1 KQD       0.321750
    114 H48         -5.2240     5.4230    -0.9590 h1         1 KQD       0.092700
    115 H49         -7.4700     5.5260    -2.0120 hc         1 KQD       0.084575
    116 H50         -7.9860     4.0320    -1.1010 hc         1 KQD       0.084575
    117 H51         -7.5350     5.1200     1.0570 hc         1 KQD       0.085450
    118 H52         -7.8450     7.0980     2.2900 ha         1 KQD       0.128500
    119 H53         -7.7620     9.5410     2.5370 ha         1 KQD       0.130250
    120 H54         -6.9080    10.9540     0.6870 ha         1 KQD       0.131250
    121 H55         -6.1490     9.8790    -1.4140 ha         1 KQD       0.130250
    122 H56         -6.2350     7.4520    -1.6680 ha         1 KQD       0.128500
    123 C7           2.9350     1.4120     0.7510 c          1 KQD       0.682700
    124 O37          8.2230    -0.9000     1.2480 o          1 KQD      -0.592850
@<TRIPOS>BOND
     1     1     6 1   
     2     1    38 2   
     3     1    39 1   
     4     2     3 ar  
     5     2     5 ar  
     6     2    67 1   
     7     3     6 ar  
     8     3    68 1   
     9     4     6 ar  
    10     4     7 ar  
    11     4    69 1   
    12     5     7 ar  
    13     5   123 1   
    14     7    70 1   
    15     8   123 2   
    16     9    10 1   
    17     9    37 1   
    18     9    71 1   
    19     9    72 1   
    20    10    11 1   
    21    10    14 1   
    22    10    73 1   
    23    11    12 1   
    24    11    25 1   
    25    11    74 1   
    26    12    37 1   
    27    12    75 1   
    28    12    76 1   
    29    13    39 1   
    30    13    41 1   
    31    13    77 1   
    32    13    78 1   
    33    14    15 1   
    34    14   124 2   
    35    15    16 1   
    36    15    79 1   
    37    16    17 1   
    38    16    24 1   
    39    16    80 1   
    40    17    18 1   
    41    17    24 1   
    42    17    81 1   
    43    18    19 ar  
    44    18    23 ar  
    45    19    20 ar  
    46    19    82 1   
    47    20    21 ar  
    48    20    83 1   
    49    21    22 ar  
    50    21    84 1   
    51    22    23 ar  
    52    22    85 1   
    53    23    86 1   
    54    24    87 1   
    55    24    88 1   
    56    25    26 2   
    57    25    27 1   
    58    27    28 1   
    59    27    89 1   
    60    28    29 1   
    61    28    30 1   
    62    28    90 1   
    63    29    30 1   
    64    29    91 1   
    65    29    92 1   
    66    30    31 1   
    67    30    93 1   
    68    31    32 ar  
    69    31    36 ar  
    70    32    33 ar  
    71    32    94 1   
    72    33    34 ar  
    73    33    95 1   
    74    34    35 ar  
    75    34    96 1   
    76    35    36 ar  
    77    35    97 1   
    78    36    98 1   
    79    37   123 1   
    80    39    40 1   
    81    40    54 1   
    82    40    99 1   
    83    40   100 1   
    84    41    42 1   
    85    41    54 1   
    86    41   101 1   
    87    42    43 2   
    88    42    44 1   
    89    44    45 1   
    90    44   102 1   
    91    45    46 1   
    92    45    47 1   
    93    45   103 1   
    94    46    47 1   
    95    46   104 1   
    96    46   105 1   
    97    47    48 1   
    98    47   106 1   
    99    48    49 ar  
   100    48    53 ar  
   101    49    50 ar  
   102    49   107 1   
   103    50    51 ar  
   104    50   108 1   
   105    51    52 ar  
   106    51   109 1   
   107    52    53 ar  
   108    52   110 1   
   109    53   111 1   
   110    54    55 1   
   111    54   112 1   
   112    55    56 2   
   113    55    57 1   
   114    57    58 1   
   115    57   113 1   
   116    58    59 1   
   117    58    60 1   
   118    58   114 1   
   119    59    60 1   
   120    59   115 1   
   121    59   116 1   
   122    60    61 1   
   123    60   117 1   
   124    61    62 ar  
   125    61    66 ar  
   126    62    63 ar  
   127    62   118 1   
   128    63    64 ar  
   129    63   119 1   
   130    64    65 ar  
   131    64   120 1   
   132    65    66 ar  
   133    65   121 1   
   134    66   122 1   
@<TRIPOS>SUBSTRUCTURE
     1 KQD         1 TEMP              0 ****  ****    0 ROOT
