@<TRIPOS>MOLECULE
KQE
   37    40     1     0     0
SMALL
bcc


@<TRIPOS>ATOM
      1 C1          -0.5440     0.6650     0.8750 ca         1 KQE      -0.120000
      2 C2          -0.8670    -0.5790     0.3260 ca         1 KQE       0.016200
      3 C3          -2.1700    -0.7990    -0.1200 ca         1 KQE      -0.126000
      4 C4          -3.1290     0.1930    -0.0030 ca         1 KQE       0.140100
      5 C5          -2.8200     1.4290     0.5460 ca         1 KQE      -0.172000
      6 C6          -5.4050     0.6650    -0.5660 c3         1 KQE       0.864700
      7 C7           0.0790    -1.6820     0.2390 cc         1 KQE      -0.086300
      8 C9           1.9590    -2.8570     0.0790 cc         1 KQE      -0.070300
      9 C10          3.3510    -2.9790    -0.0570 cc         1 KQE      -0.036000
     10 C11          4.0880    -1.8390    -0.1400 cd         1 KQE      -0.240300
     11 C13          4.1800     0.6920    -0.1960 ca         1 KQE      -0.113500
     12 C16          6.1810     1.9890     0.0000 ca         1 KQE       0.397200
     13 C17          5.5350     0.7670     0.1100 ca         1 KQE      -0.219800
     14 N            1.0000    -3.7560     0.1720 nd         1 KQE      -0.259600
     15 C           -1.5170     1.6440     0.9760 ca         1 KQE      -0.102000
     16 O           -4.3730    -0.1800    -0.4740 os         1 KQE      -0.384900
     17 C12          3.4300    -0.5780    -0.0920 cd         1 KQE       0.443800
     18 C14          3.5450     1.8650    -0.5970 ca         1 KQE      -0.219800
     19 C15          4.2850     3.0330    -0.6760 ca         1 KQE       0.397200
     20 C8          -0.1420    -3.0460     0.2690 cd         1 KQE       0.023600
     21 F           -5.8150     1.1130     0.6230 f          1 KQE      -0.226967
     22 F1          -5.1390     1.7310    -1.3220 f          1 KQE      -0.226967
     23 F2          -6.4070     0.0040    -1.1210 f          1 KQE      -0.226967
     24 N1           5.5800     3.1070    -0.3860 nb         1 KQE      -0.650000
     25 N2           2.1380    -0.4570     0.0290 nc         1 KQE      -0.472800
     26 N3           1.4400    -1.5750     0.1190 na         1 KQE       0.204200
     27 H1           0.4530     0.8710     1.2320 ha         1 KQE       0.153000
     28 H2          -2.4450    -1.7440    -0.5720 ha         1 KQE       0.156000
     29 H3          -3.5390     2.2270     0.6580 ha         1 KQE       0.153000
     30 H4           3.8000    -3.9610    -0.1020 ha         1 KQE       0.170000
     31 H5           5.1590    -1.8940    -0.2600 ha         1 KQE       0.157000
     32 H6           7.2360     2.0620     0.2390 h4         1 KQE       0.024600
     33 H7           6.0950    -0.0950     0.4470 ha         1 KQE       0.151500
     34 H8          -1.2620     2.6020     1.4080 ha         1 KQE       0.139000
     35 H9           2.4950     1.8740    -0.8530 ha         1 KQE       0.151500
     36 H10          3.8050     3.9520    -0.9930 h4         1 KQE       0.024600
     37 H11         -1.0990    -3.5350     0.3790 h4         1 KQE       0.186000
@<TRIPOS>BOND
     1     1     2 ar  
     2     1    15 ar  
     3     1    27 1   
     4     2     3 ar  
     5     2     7 1   
     6     3     4 ar  
     7     3    28 1   
     8     4     5 ar  
     9     4    16 1   
    10     5    15 ar  
    11     5    29 1   
    12     6    16 1   
    13     6    21 1   
    14     6    22 1   
    15     6    23 1   
    16     7    20 2   
    17     7    26 1   
    18     8     9 1   
    19     8    14 2   
    20     8    26 1   
    21     9    10 2   
    22     9    30 1   
    23    10    17 1   
    24    10    31 1   
    25    11    13 ar  
    26    11    17 1   
    27    11    18 ar  
    28    12    13 ar  
    29    12    24 ar  
    30    12    32 1   
    31    13    33 1   
    32    14    20 1   
    33    15    34 1   
    34    17    25 2   
    35    18    19 ar  
    36    18    35 1   
    37    19    24 ar  
    38    19    36 1   
    39    20    37 1   
    40    25    26 1   
@<TRIPOS>SUBSTRUCTURE
     1 KQE         1 TEMP              0 ****  ****    0 ROOT
