@<TRIPOS>MOLECULE
KQE
   37    40     1     0     0
SMALL
No Charge or Current Charge


@<TRIPOS>ATOM
      1 C1          -0.6610     0.6230     0.9780 ca         1 KQE      -0.102000
      2 C2          -0.9290    -0.6090     0.3480 ca         1 KQE       0.016200
      3 C3          -2.2260    -0.8430    -0.1550 ca         1 KQE      -0.108000
      4 C4          -3.2370     0.1260    -0.0440 ca         1 KQE       0.140100
      5 C5          -2.9500     1.3560     0.5870 ca         1 KQE      -0.154000
      6 C6          -5.6160     0.6920    -0.5410 c3         1 KQE       0.524000
      7 C7           0.1070    -1.6420     0.2220 cc         1 KQE      -0.086300
      8 C9           2.0010    -2.8150     0.0730 cc         1 KQE      -0.121000
      9 C10          3.3990    -2.9820    -0.0720 cc         1 KQE      -0.018000
     10 C11          4.1570    -1.8420    -0.1770 cd         1 KQE      -0.157000
     11 C13          4.2950     0.6920    -0.2710 ca         1 KQE      -0.113500
     12 C16          6.3190     1.9940     0.1360 ca         1 KQE       0.331900
     13 C17          5.6110     0.7830     0.2370 ca         1 KQE      -0.136500
     14 N            1.0410    -3.7200     0.1750 nd         1 KQE      -0.259600
     15 C           -1.6640     1.5990     1.0960 ca         1 KQE      -0.084000
     16 O           -4.4760    -0.1910    -0.5710 os         1 KQE      -0.408100
     17 C12          3.4960    -0.5510    -0.1420 cd         1 KQE       0.378500
     18 C14          3.7520     1.8750    -0.8270 ca         1 KQE      -0.136500
     19 C15          4.5310     3.0430    -0.8880 ca         1 KQE       0.331900
     20 C8          -0.1460    -2.9990     0.2720 cd         1 KQE      -0.026400
     21 F           -5.9870     1.0010     0.7230 f          1 KQE      -0.105667
     22 F1          -5.3830     1.8490    -1.2020 f          1 KQE      -0.105667
     23 F2          -6.6830     0.1100    -1.1310 f          1 KQE      -0.105667
     24 N1           5.7980     3.1110    -0.4200 nb         1 KQE      -0.650000
     25 N2           2.1690    -0.3730    -0.0200 nc         1 KQE      -0.472800
     26 N3           1.4700    -1.5550     0.1190 na         1 KQE       0.254900
     27 H1           0.3220     0.8260     1.3950 ha         1 KQE       0.135000
     28 H2          -2.4570    -1.7810    -0.6520 ha         1 KQE       0.138000
     29 H3          -3.7020     2.1320     0.6950 ha         1 KQE       0.135000
     30 H4           3.8370    -3.9750    -0.1070 ha         1 KQE       0.152000
     31 H5           5.2300    -1.9160    -0.3040 ha         1 KQE       0.139000
     32 H6           7.3350     2.0730     0.5210 h4         1 KQE       0.024600
     33 H7           6.0910    -0.0630     0.7200 ha         1 KQE       0.133500
     34 H8          -1.4440     2.5440     1.5880 ha         1 KQE       0.121000
     35 H9           2.7400     1.8980    -1.2230 ha         1 KQE       0.133500
     36 H10          4.1260     3.9560    -1.3250 h4         1 KQE       0.024600
     37 H11         -1.1050    -3.4980     0.3840 h4         1 KQE       0.236000
@<TRIPOS>BOND
     1     1     2 ar  
     2     1    15 ar  
     3     1    27 1   
     4     2     3 ar  
     5     2     7 1   
     6     3     4 ar  
     7     3    28 1   
     8     4     5 ar  
     9     4    16 1   
    10     5    15 ar  
    11     5    29 1   
    12     6    16 1   
    13     6    21 1   
    14     6    22 1   
    15     6    23 1   
    16     7    20 2   
    17     7    26 1   
    18     8     9 1   
    19     8    14 2   
    20     8    26 1   
    21     9    10 2   
    22     9    30 1   
    23    10    17 1   
    24    10    31 1   
    25    11    13 ar  
    26    11    17 1   
    27    11    18 ar  
    28    12    13 ar  
    29    12    24 ar  
    30    12    32 1   
    31    13    33 1   
    32    14    20 1   
    33    15    34 1   
    34    17    25 2   
    35    18    19 ar  
    36    18    35 1   
    37    19    24 ar  
    38    19    36 1   
    39    20    37 1   
    40    25    26 1   
@<TRIPOS>SUBSTRUCTURE
     1 KQE         1 TEMP              0 ****  ****    0 ROOT
