@<TRIPOS>MOLECULE
KQF
   21    22     1     0     0
SMALL
bcc


@<TRIPOS>ATOM
      1 C02          4.7090     5.3110    17.0130 c          1 KQF       0.923200
      2 C04          4.3540     4.0300    17.7620 ca         1 KQF      -0.111600
      3 C05          4.8140     3.8030    19.0590 ca         1 KQF      -0.116500
      4 C06          4.5000     2.6410    19.7400 ca         1 KQF      -0.129000
      5 C07          3.7100     1.6540    19.1440 ca         1 KQF      -0.181500
      6 C08          3.3960     0.4350    19.8700 cc         1 KQF       0.352200
      7 C09          3.7700    -0.0410    21.0920 cd         1 KQF      -0.301300
      8 C10          3.1360    -1.3070    21.2440 cd         1 KQF      -0.270300
      9 C11          2.4270    -1.5090    20.1080 cc         1 KQF       0.198600
     10 C13          3.2440     1.8770    17.8450 ca         1 KQF      -0.129000
     11 C14          3.5630     3.0460    17.1740 ca         1 KQF      -0.116500
     12 O01          5.4520     6.1130    17.6100 o          1 KQF      -0.821300
     13 O03          4.2240     5.4380    15.8720 o          1 KQF      -0.821300
     14 O12          2.5790    -0.4620    19.2740 os         1 KQF      -0.327800
     15 H051         5.4280     4.5510    19.5430 ha         1 KQF       0.147000
     16 H061         4.8730     2.5000    20.7470 ha         1 KQF       0.112500
     17 H091         4.4190     0.4470    21.8000 ha         1 KQF       0.154000
     18 H101         3.2020    -1.9760    22.0860 ha         1 KQF       0.143000
     19 H111         1.7960    -2.3120    19.7660 h4         1 KQF       0.037100
     20 H131         2.6310     1.1360    17.3480 ha         1 KQF       0.112500
     21 H141         3.1920     3.1970    16.1690 ha         1 KQF       0.147000
@<TRIPOS>BOND
     1     1     2 1   
     2     1    12 1   
     3     1    13 1   
     4     2     3 ar  
     5     2    11 ar  
     6     3     4 ar  
     7     3    15 1   
     8     4     5 ar  
     9     4    16 1   
    10     5     6 1   
    11     5    10 ar  
    12     6     7 2   
    13     6    14 1   
    14     7     8 1   
    15     7    17 1   
    16     8     9 2   
    17     8    18 1   
    18     9    14 1   
    19     9    19 1   
    20    10    11 ar  
    21    10    20 1   
    22    11    21 1   
@<TRIPOS>SUBSTRUCTURE
     1 KQF         1 TEMP              0 ****  ****    0 ROOT
