@<TRIPOS>MOLECULE
KQF
   21    22     1     0     0
SMALL
No Charge or Current Charge


@<TRIPOS>ATOM
      1 C02          4.7280     5.3430    17.0380 c          1 KQF       0.712600
      2 C04          4.3700     4.0520    17.7620 ca         1 KQF      -0.111600
      3 C05          4.8480     3.7950    19.0670 ca         1 KQF      -0.098500
      4 C06          4.5180     2.6030    19.7360 ca         1 KQF      -0.111000
      5 C07          3.6990     1.6320    19.1200 ca         1 KQF      -0.181500
      6 C08          3.3410     0.3790    19.8010 cc         1 KQF       0.242500
      7 C09          3.7270    -0.0040    21.0560 cd         1 KQF      -0.218000
      8 C10          3.1420    -1.2710    21.2730 cd         1 KQF      -0.187000
      9 C11          2.4320    -1.5940    20.1450 cc         1 KQF       0.088900
     10 C13          3.2210     1.8870    17.8190 ca         1 KQF      -0.111000
     11 C14          3.5510     3.0780    17.1480 ca         1 KQF      -0.098500
     12 O01          5.4410     6.1570    17.6080 o          1 KQF      -0.716000
     13 O03          4.2910     5.5220    15.9090 o          1 KQF      -0.716000
     14 O12          2.5450    -0.5800    19.2190 os         1 KQF      -0.239000
     15 H051         5.4820     4.5220    19.5710 ha         1 KQF       0.129000
     16 H061         4.9080     2.4480    20.7380 ha         1 KQF       0.094500
     17 H091         4.3530     0.5450    21.7490 ha         1 KQF       0.136000
     18 H101         3.2320    -1.8830    22.1650 ha         1 KQF       0.125000
     19 H111         1.8380    -2.4590    19.8820 h4         1 KQF       0.037100
     20 H131         2.5880     1.1600    17.3150 ha         1 KQF       0.094500
     21 H141         3.1640     3.2400    16.1450 ha         1 KQF       0.129000
@<TRIPOS>BOND
     1     1     2 1   
     2     1    12 1   
     3     1    13 1   
     4     2     3 ar  
     5     2    11 ar  
     6     3     4 ar  
     7     3    15 1   
     8     4     5 ar  
     9     4    16 1   
    10     5     6 1   
    11     5    10 ar  
    12     6     7 2   
    13     6    14 1   
    14     7     8 1   
    15     7    17 1   
    16     8     9 2   
    17     8    18 1   
    18     9    14 1   
    19     9    19 1   
    20    10    11 ar  
    21    10    20 1   
    22    11    21 1   
@<TRIPOS>SUBSTRUCTURE
     1 KQF         1 TEMP              0 ****  ****    0 ROOT
