@<TRIPOS>MOLECULE
KQI
   55    55     1     0     0
SMALL
No Charge or Current Charge


@<TRIPOS>ATOM
      1 C5          40.6560    64.4780    46.7080 ca         1 KQI      -0.106000
      2 C6          40.2410    64.6800    45.3800 ca         1 KQI      -0.107000
      3 N1          41.1370    67.4240    43.1160 ns         1 KQI      -0.486900
      4 C2          39.2370    66.8020    46.0150 ca         1 KQI      -0.107000
      5 N3          48.2930    71.8750    46.0540 n1         1 KQI       0.228000
      6 C4          40.3620    65.4390    47.6900 ca         1 KQI      -0.106000
      7 CA          40.0400    65.7850    38.7830 c3         1 KQI      -0.060300
      8 C           39.5810    64.4620    38.1260 c          1 KQI       0.568900
      9 CB          41.3820    66.2860    38.1710 c3         1 KQI       0.179300
     10 O           39.6420    63.3660    38.6770 o          1 KQI      -0.512100
     11 OB1         41.7800    67.5170    38.7860 oh         1 KQI      -0.659000
     12 CB1         41.3180    66.5180    36.6450 c3         1 KQI      -0.093100
     13 CAO         39.8120    66.6150    41.1780 c          1 KQI       0.593100
     14 OAR         39.2360    67.6480    40.8570 o          1 KQI      -0.587100
     15 CAP         40.2860    66.3190    42.6280 c3         1 KQI       0.042700
     16 C1          39.5310    65.8440    45.0250 ca         1 KQI      -0.089300
     17 C3          39.6520    66.6000    47.3430 ca         1 KQI      -0.106000
     18 C8          43.0280    68.9910    43.1800 c3         1 KQI      -0.153400
     19 C9          44.3340    68.4760    43.8360 c3         1 KQI      -0.065400
     20 C10         45.0810    69.5310    44.6880 c3         1 KQI      -0.075400
     21 C11         45.6350    70.7320    43.8790 c3         1 KQI      -0.070400
     22 C12         46.4140    71.7600    44.7310 c3         1 KQI       0.166800
     23 N2          47.6550    71.1750    45.2520 n2         1 KQI      -0.438200
     24 N4          48.9470    72.3970    46.8250 n1         1 KQI      -0.089000
     25 OC7         42.6380    67.3900    41.4040 o          1 KQI      -0.639100
     26 H1          41.2050    63.5780    46.9750 ha         1 KQI       0.115500
     27 H2          40.4740    63.9310    44.6260 ha         1 KQI       0.111000
     28 H3          40.9070    67.8630    43.9990 hn         1 KQI       0.329500
     29 H4          38.6890    67.7060    45.7590 ha         1 KQI       0.111000
     30 H5          40.6830    65.2830    48.7180 ha         1 KQI       0.115000
     31 H6          39.2600    66.5190    38.5440 h1         1 KQI       0.111700
     32 H7          39.1630    64.5600    37.1000 h4         1 KQI      -0.001800
     33 H8          42.1500    65.5250    38.3620 h1         1 KQI       0.026700
     34 H9          42.0350    67.3180    39.7270 ho         1 KQI       0.479000
     35 H10         41.1340    65.5790    36.1090 hc         1 KQI       0.046033
     36 H11         40.5210    67.2260    36.3900 hc         1 KQI       0.046033
     37 H12         42.2680    66.9250    36.2800 hc         1 KQI       0.046033
     38 H13         40.5600    64.7920    40.6290 hn         1 KQI       0.324500
     39 H14         40.9060    65.4130    42.6010 h1         1 KQI       0.066700
     40 H15         38.4010    66.9140    43.5180 hc         1 KQI       0.070200
     41 H16         38.5340    65.1920    43.2230 hc         1 KQI       0.070200
     42 H17         39.4230    67.3440    48.1030 ha         1 KQI       0.115500
     43 H18         43.2810    69.7510    42.4320 hc         1 KQI       0.060200
     44 H19         42.3960    69.4300    43.9610 hc         1 KQI       0.060200
     45 H20         44.0900    67.6230    44.4820 hc         1 KQI       0.056700
     46 H21         45.0080    68.0940    43.0590 hc         1 KQI       0.056700
     47 H22         44.4110    69.9000    45.4750 hc         1 KQI       0.043200
     48 H23         45.9120    69.0280    45.1980 hc         1 KQI       0.043200
     49 H24         46.2820    70.3680    43.0720 hc         1 KQI       0.053200
     50 H25         44.8010    71.2600    43.4010 hc         1 KQI       0.053200
     51 H26         46.6440    72.6310    44.1020 h1         1 KQI       0.043200
     52 H27         45.7700    72.1070    45.5500 h1         1 KQI       0.043200
     53 CAS         39.0940    66.0650    43.5800 c3         1 KQI      -0.043100
     54 C7          42.2760    67.8580    42.4770 c          1 KQI       0.610100
     55 N           40.1200    65.6300    40.2620 ns         1 KQI      -0.488900
@<TRIPOS>BOND
     1     1     2 ar  
     2     1     6 ar  
     3     1    26 1   
     4     2    16 ar  
     5     2    27 1   
     6     3    15 1   
     7     3    28 1   
     8     3    54 1   
     9     4    16 ar  
    10     4    17 ar  
    11     4    29 1   
    12     5    23 1   
    13     5    24 3   
    14     6    17 ar  
    15     6    30 1   
    16     7     8 1   
    17     7     9 1   
    18     7    31 1   
    19     7    55 1   
    20     8    10 2   
    21     8    32 1   
    22     9    11 1   
    23     9    12 1   
    24     9    33 1   
    25    11    34 1   
    26    12    35 1   
    27    12    36 1   
    28    12    37 1   
    29    13    14 2   
    30    13    15 1   
    31    13    55 1   
    32    15    39 1   
    33    15    53 1   
    34    16    53 1   
    35    17    42 1   
    36    18    19 1   
    37    18    43 1   
    38    18    44 1   
    39    18    54 1   
    40    19    20 1   
    41    19    45 1   
    42    19    46 1   
    43    20    21 1   
    44    20    47 1   
    45    20    48 1   
    46    21    22 1   
    47    21    49 1   
    48    21    50 1   
    49    22    23 1   
    50    22    51 1   
    51    22    52 1   
    52    25    54 2   
    53    38    55 1   
    54    40    53 1   
    55    41    53 1   
@<TRIPOS>SUBSTRUCTURE
     1 KQI         1 TEMP              0 ****  ****    0 ROOT
