@<TRIPOS>MOLECULE
KQI
   55    55     1     0     0
SMALL
abcg2


@<TRIPOS>ATOM
      1 C5          40.0380    64.0310    46.5060 ca         1 KQI      -0.106000
      2 C6          39.8100    64.4600    45.2070 ca         1 KQI      -0.107000
      3 N1          41.2090    67.4350    43.3590 ns         1 KQI      -0.486900
      4 C2          39.1040    66.5950    46.0300 ca         1 KQI      -0.107000
      5 N3          48.2680    71.9710    45.4680 n1         1 KQI       0.228000
      6 C4          39.7980    64.8860    47.5750 ca         1 KQI      -0.106000
      7 CA          40.1870    65.9370    39.0020 c3         1 KQI      -0.060300
      8 C           39.4500    64.7700    38.3940 c          1 KQI       0.568900
      9 CB          41.5860    66.1330    38.3530 c3         1 KQI       0.179300
     10 O           39.1700    63.7660    38.9960 o          1 KQI      -0.512100
     11 OB1         42.2380    67.2250    38.9420 oh         1 KQI      -0.659000
     12 CB1         41.4930    66.3970    36.8610 c3         1 KQI      -0.093100
     13 CAO         40.0900    66.7660    41.3090 c          1 KQI       0.593100
     14 OAR         39.6410    67.8620    41.0230 o          1 KQI      -0.587100
     15 CAP         40.4110    66.3960    42.7580 c3         1 KQI       0.042700
     16 C1          39.3410    65.7480    44.9520 ca         1 KQI      -0.089300
     17 C3          39.3300    66.1700    47.3340 ca         1 KQI      -0.106000
     18 C8          43.1290    68.9060    43.5460 c3         1 KQI      -0.153400
     19 C9          44.6060    68.5930    43.7760 c3         1 KQI      -0.065400
     20 C10         45.3610    69.7280    44.4590 c3         1 KQI      -0.075400
     21 C11         45.5070    70.9770    43.5990 c3         1 KQI      -0.070400
     22 C12         46.3110    72.0760    44.2690 c3         1 KQI       0.166800
     23 N2          47.7040    71.6330    44.4500 n2         1 KQI      -0.438200
     24 N4          48.8750    72.2320    46.3810 n1         1 KQI      -0.089000
     25 OC7         42.8830    67.1930    41.8870 o          1 KQI      -0.639100
     26 H1          40.3990    63.0270    46.6850 ha         1 KQI       0.115500
     27 H2          39.9950    63.7830    44.3800 ha         1 KQI       0.111000
     28 H3          40.8330    67.9530    44.1380 hn         1 KQI       0.329500
     29 H4          38.7330    67.5980    45.8510 ha         1 KQI       0.111000
     30 H5          39.9720    64.5520    48.5900 ha         1 KQI       0.115000
     31 H6          39.5960    66.8350    38.7950 h1         1 KQI       0.111700
     32 H7          39.1780    64.8950    37.3340 h4         1 KQI      -0.001800
     33 H8          42.1560    65.2060    38.5160 h1         1 KQI       0.026700
     34 H9          42.4450    67.0280    39.8660 ho         1 KQI       0.479000
     35 H10         41.1260    65.5250    36.3210 hc         1 KQI       0.046033
     36 H11         40.8270    67.2340    36.6470 hc         1 KQI       0.046033
     37 H12         42.4800    66.6320    36.4630 hc         1 KQI       0.046033
     38 H13         40.7250    64.9220    40.7590 hn         1 KQI       0.324500
     39 H14         40.9720    65.4560    42.7820 h1         1 KQI       0.066700
     40 H15         38.5400    67.1380    43.5280 hc         1 KQI       0.070200
     41 H16         38.5050    65.4640    43.0050 hc         1 KQI       0.070200
     42 H17         39.1380    66.8430    48.1600 ha         1 KQI       0.115500
     43 H18         43.0220    69.7850    42.9020 hc         1 KQI       0.060200
     44 H19         42.6480    69.1580    44.4940 hc         1 KQI       0.060200
     45 H20         44.6860    67.6950    44.3920 hc         1 KQI       0.056700
     46 H21         45.0860    68.3590    42.8230 hc         1 KQI       0.056700
     47 H22         44.8610    69.9900    45.3980 hc         1 KQI       0.043200
     48 H23         46.3550    69.3660    44.7330 hc         1 KQI       0.043200
     49 H24         45.9730    70.7190    42.6430 hc         1 KQI       0.053200
     50 H25         44.5280    71.4000    43.3600 hc         1 KQI       0.053200
     51 H26         46.3150    72.9710    43.6440 h1         1 KQI       0.043200
     52 H27         45.8580    72.3440    45.2280 h1         1 KQI       0.043200
     53 CAS         39.1070    66.2050    43.5370 c3         1 KQI      -0.043100
     54 C7          42.4070    67.7730    42.8590 c          1 KQI       0.610100
     55 N           40.3120    65.7790    40.4240 ns         1 KQI      -0.488900
@<TRIPOS>BOND
     1     1     2 ar  
     2     1     6 ar  
     3     1    26 1   
     4     2    16 ar  
     5     2    27 1   
     6     3    15 1   
     7     3    28 1   
     8     3    54 1   
     9     4    16 ar  
    10     4    17 ar  
    11     4    29 1   
    12     5    23 1   
    13     5    24 3   
    14     6    17 ar  
    15     6    30 1   
    16     7     8 1   
    17     7     9 1   
    18     7    31 1   
    19     7    55 1   
    20     8    10 2   
    21     8    32 1   
    22     9    11 1   
    23     9    12 1   
    24     9    33 1   
    25    11    34 1   
    26    12    35 1   
    27    12    36 1   
    28    12    37 1   
    29    13    14 2   
    30    13    15 1   
    31    13    55 1   
    32    15    39 1   
    33    15    53 1   
    34    16    53 1   
    35    17    42 1   
    36    18    19 1   
    37    18    43 1   
    38    18    44 1   
    39    18    54 1   
    40    19    20 1   
    41    19    45 1   
    42    19    46 1   
    43    20    21 1   
    44    20    47 1   
    45    20    48 1   
    46    21    22 1   
    47    21    49 1   
    48    21    50 1   
    49    22    23 1   
    50    22    51 1   
    51    22    52 1   
    52    25    54 2   
    53    38    55 1   
    54    40    53 1   
    55    41    53 1   
@<TRIPOS>SUBSTRUCTURE
     1 KQI         1 TEMP              0 ****  ****    0 ROOT
