@<TRIPOS>MOLECULE
KQK
   30    32     1     0     0
SMALL
No Charge or Current Charge


@<TRIPOS>ATOM
      1 C1           4.7790    -1.2550    -0.0560 c3         1 KQK       0.226100
      2 N1           3.2770     1.1080     0.2270 nb         1 KQK      -0.247000
      3 C2           2.5660    -0.0220     0.0310 ca         1 KQK       0.387900
      4 N2          -3.0880     1.7420    -0.4180 nc         1 KQK      -0.524100
      5 C3           2.5800     2.2490     0.3700 ca         1 KQK       0.151900
      6 N3          -3.0390     0.4020    -0.1740 na         1 KQK       0.429200
      7 C4           1.1790     2.2600     0.3210 ca         1 KQK      -0.280000
      8 N4          -4.1920    -0.3520    -0.1980 nc         1 KQK      -0.429800
      9 C5           0.5180     1.0340     0.1370 ca         1 KQK       0.274800
     10 N5           1.2200    -0.1030    -0.0290 nb         1 KQK      -0.273000
     11 C6          -0.9460     0.9730     0.0090 cd         1 KQK      -0.358400
     12 C7          -1.8050     2.0670    -0.3090 cd         1 KQK       0.388500
     13 C8          -1.7860    -0.1090     0.0780 cc         1 KQK      -0.094000
     14 C9          -1.5650    -1.4820     0.3530 cc         1 KQK      -0.024000
     15 C10         -2.6890    -2.2710     0.3400 cd         1 KQK      -0.164000
     16 C11         -3.9680    -1.6520     0.0580 cd         1 KQK       0.294900
     17 N            3.2940    -1.2300    -0.1330 nh         1 KQK      -0.772300
     18 C            2.6040    -2.5230    -0.3860 c3         1 KQK       0.226100
     19 H4           5.2150    -0.6470    -0.8590 h1         1 KQK       0.040867
     20 H5           5.1210    -0.8620     0.9110 h1         1 KQK       0.040867
     21 H3           5.1700    -2.2760    -0.1560 h1         1 KQK       0.040867
     22 H6           3.1510     3.1630     0.5210 h4         1 KQK       0.019100
     23 H7           0.6340     3.1920     0.4350 ha         1 KQK       0.133000
     24 H8          -1.5220     3.1000    -0.4730 h4         1 KQK       0.053800
     25 H9          -0.5780    -1.8790     0.5660 ha         1 KQK       0.160000
     26 H10         -2.6260    -3.3350     0.5380 ha         1 KQK       0.135000
     27 H11         -4.8720    -2.2460     0.0400 h4         1 KQK       0.042100
     28 H2           1.9810    -2.8000     0.4740 h1         1 KQK       0.040867
     29 H1           1.9660    -2.4500    -1.2770 h1         1 KQK       0.040867
     30 H            3.3230    -3.3350    -0.5580 h1         1 KQK       0.040867
@<TRIPOS>BOND
     1     1    17 1   
     2     1    19 1   
     3     1    20 1   
     4     1    21 1   
     5     2     3 ar  
     6     2     5 ar  
     7     3    10 ar  
     8     3    17 1   
     9     4     6 1   
    10     4    12 2   
    11     5     7 ar  
    12     5    22 1   
    13     6     8 1   
    14     6    13 1   
    15     7     9 ar  
    16     7    23 1   
    17     8    16 2   
    18     9    10 ar  
    19     9    11 1   
    20    11    12 1   
    21    11    13 2   
    22    12    24 1   
    23    13    14 1   
    24    14    15 2   
    25    14    25 1   
    26    15    16 1   
    27    15    26 1   
    28    16    27 1   
    29    17    18 1   
    30    18    28 1   
    31    18    29 1   
    32    18    30 1   
@<TRIPOS>SUBSTRUCTURE
     1 KQK         1 TEMP              0 ****  ****    0 ROOT
