@<TRIPOS>MOLECULE
KQK
   30    32     1     0     0
SMALL
bcc


@<TRIPOS>ATOM
      1 C1           4.6630    -1.2360    -0.0220 c3         1 KQK       0.226100
      2 N1           3.2980     1.0870    -0.0000 nb         1 KQK      -0.773000
      3 C2           2.5630    -0.0330    -0.0510 ca         1 KQK       0.913900
      4 N2          -3.0580     1.6540     0.0900 nc         1 KQK      -0.524100
      5 C3           2.6240     2.2240     0.0560 ca         1 KQK       0.480200
      6 N3          -2.9780     0.3320     0.0460 na         1 KQK       0.378500
      7 C4           1.2450     2.2970     0.0740 ca         1 KQK      -0.428600
      8 N4          -4.0780    -0.3980     0.0330 nc         1 KQK      -0.429800
      9 C5           0.5680     1.0760     0.0280 ca         1 KQK       0.603100
     10 N5           1.2260    -0.0760    -0.0310 nb         1 KQK      -0.799000
     11 C6          -0.8810     1.0100     0.0460 cd         1 KQK      -0.358400
     12 C7          -1.8030     2.0660     0.0890 cd         1 KQK       0.388500
     13 C8          -1.6850    -0.1330     0.0180 cc         1 KQK      -0.043300
     14 C9          -1.5090    -1.5300    -0.0260 cc         1 KQK      -0.042000
     15 C10         -2.6260    -2.3080    -0.0430 cd         1 KQK      -0.247300
     16 C11         -3.8980    -1.6840    -0.0110 cd         1 KQK       0.360200
     17 N            3.2200    -1.2100    -0.1390 nh         1 KQK      -0.772300
     18 C            2.4860    -2.4500    -0.0130 c3         1 KQK       0.226100
     19 H4           5.1210    -0.4950    -0.6730 h1         1 KQK       0.040867
     20 H5           5.0070    -1.0470     0.9990 h1         1 KQK       0.040867
     21 H3           5.0200    -2.2170    -0.3240 h1         1 KQK       0.040867
     22 H6           3.2180     3.1310     0.0960 h4         1 KQK       0.019100
     23 H7           0.7370     3.2480     0.1270 ha         1 KQK       0.151000
     24 H8          -1.5970     3.1250     0.1180 h4         1 KQK       0.053800
     25 H9          -0.5110    -1.9380    -0.0480 ha         1 KQK       0.178000
     26 H10         -2.5630    -3.3850    -0.0760 ha         1 KQK       0.153000
     27 H11         -4.8030    -2.2760    -0.0220 h4         1 KQK       0.042100
     28 H2           2.0670    -2.5910     0.9880 h1         1 KQK       0.040867
     29 H1           1.6690    -2.5020    -0.7310 h1         1 KQK       0.040867
     30 H            3.1620    -3.2780    -0.2150 h1         1 KQK       0.040867
@<TRIPOS>BOND
     1     1    17 1   
     2     1    19 1   
     3     1    20 1   
     4     1    21 1   
     5     2     3 ar  
     6     2     5 ar  
     7     3    10 ar  
     8     3    17 1   
     9     4     6 1   
    10     4    12 2   
    11     5     7 ar  
    12     5    22 1   
    13     6     8 1   
    14     6    13 1   
    15     7     9 ar  
    16     7    23 1   
    17     8    16 2   
    18     9    10 ar  
    19     9    11 1   
    20    11    12 1   
    21    11    13 2   
    22    12    24 1   
    23    13    14 1   
    24    14    15 2   
    25    14    25 1   
    26    15    16 1   
    27    15    26 1   
    28    16    27 1   
    29    17    18 1   
    30    18    28 1   
    31    18    29 1   
    32    18    30 1   
@<TRIPOS>SUBSTRUCTURE
     1 KQK         1 TEMP              0 ****  ****    0 ROOT
