@<TRIPOS>MOLECULE
KQL
   34    35     1     0     0
SMALL
abcg2


@<TRIPOS>ATOM
      1 N1           7.6730    -0.8260    20.4240 ns         1 KQL      -0.148000
      2 C4           7.3720    -0.0310    18.1210 ca         1 KQL       0.330900
      3 C5           7.1070     0.0600    19.4890 ca         1 KQL      -0.081000
      4 C6           8.8700    -1.4720    20.3460 c          1 KQL       0.602100
      5 C7           9.2620    -2.2200    21.6150 c3         1 KQL      -0.110100
      6 C8          10.2290    -1.3790    22.4150 ca         1 KQL      -0.093300
      7 C10         10.6440     0.3360    24.0720 ca         1 KQL      -0.114000
      8 C13         11.5960    -1.4490    22.1670 ca         1 KQL      -0.037000
      9 F2          14.6370     0.3570    22.9530 f          1 KQL      -0.111000
     10 F           14.2200    -0.9750    21.2930 f          1 KQL      -0.111000
     11 F1          14.5100    -1.7820    23.2820 f          1 KQL      -0.111000
     12 C12         12.4780    -0.6270    22.8640 ca         1 KQL      -0.186300
     13 C11         12.0090     0.2660    23.8210 ca         1 KQL      -0.053000
     14 C9           9.7610    -0.4770    23.3730 ca         1 KQL      -0.079000
     15 O            9.6090    -1.4300    19.3720 o          1 KQL      -0.568100
     16 C1           6.2280     1.0540    19.9490 ca         1 KQL      -0.087300
     17 C            5.9020     1.2080    21.4050 c3         1 KQL      -0.051800
     18 N            6.8400     0.7950    17.2170 nb         1 KQL      -0.644000
     19 C3           6.0070     1.7430    17.6530 ca         1 KQL       0.315900
     20 C2           5.6780     1.8990    18.9920 ca         1 KQL      -0.142000
     21 H1           7.1880    -0.9070    21.3040 hn         1 KQL       0.149000
     22 H2           8.0360    -0.7980    17.7530 h4         1 KQL       0.048100
     23 H3           8.3830    -2.4570    22.2140 hc         1 KQL       0.074200
     24 H4           9.7350    -3.1520    21.3070 hc         1 KQL       0.074200
     25 H5          10.2680     1.0290    24.8140 ha         1 KQL       0.123000
     26 H6          11.9700    -2.1410    21.4240 ha         1 KQL       0.140000
     27 H7          12.6970     0.9000    24.3630 ha         1 KQL       0.134000
     28 H8           8.6980    -0.4130    23.5690 ha         1 KQL       0.110000
     29 H9           5.3720     0.3310    21.7890 hc         1 KQL       0.045700
     30 H10          6.8100     1.3240    22.0020 hc         1 KQL       0.045700
     31 H11          5.2680     2.0780    21.5650 hc         1 KQL       0.045700
     32 H12          5.5840     2.4040    16.9040 h4         1 KQL       0.023100
     33 H13          4.9960     2.6840    19.2940 ha         1 KQL       0.122000
     34 C14         13.9500    -0.7490    22.5980 c3         1 KQL       0.344300
@<TRIPOS>BOND
     1     1     3 1   
     2     1     4 1   
     3     1    21 1   
     4     2     3 ar  
     5     2    18 ar  
     6     2    22 1   
     7     3    16 ar  
     8     4     5 1   
     9     4    15 2   
    10     5     6 1   
    11     5    23 1   
    12     5    24 1   
    13     6     8 ar  
    14     6    14 ar  
    15     7    13 ar  
    16     7    14 ar  
    17     7    25 1   
    18     8    12 ar  
    19     8    26 1   
    20     9    34 1   
    21    10    34 1   
    22    11    34 1   
    23    12    13 ar  
    24    12    34 1   
    25    13    27 1   
    26    14    28 1   
    27    16    17 1   
    28    16    20 ar  
    29    17    29 1   
    30    17    30 1   
    31    17    31 1   
    32    18    19 ar  
    33    19    20 ar  
    34    19    32 1   
    35    20    33 1   
@<TRIPOS>SUBSTRUCTURE
     1 KQL         1 TEMP              0 ****  ****    0 ROOT
