@<TRIPOS>MOLECULE
KQL
   34    35     1     0     0
SMALL
No Charge or Current Charge


@<TRIPOS>ATOM
      1 N1           7.7570    -0.5790    20.4320 ns         1 KQL      -0.148000
      2 C4           7.5060     0.2550    18.0870 ca         1 KQL       0.330900
      3 C5           7.1030     0.2200    19.4470 ca         1 KQL      -0.081000
      4 C6           8.9130    -1.3480    20.3890 c          1 KQL       0.602100
      5 C7           9.2500    -2.0560    21.7070 c3         1 KQL      -0.110100
      6 C8          10.3100    -1.2770    22.4810 ca         1 KQL      -0.093300
      7 C10         10.9060     0.3870    24.1570 ca         1 KQL      -0.114000
      8 C13         11.6790    -1.4960    22.2250 ca         1 KQL      -0.037000
      9 F2          14.9290     0.0400    22.9420 f          1 KQL      -0.111000
     10 F           14.3860    -1.3220    21.3460 f          1 KQL      -0.111000
     11 F1          14.6200    -2.0670    23.3740 f          1 KQL      -0.111000
     12 C12         12.6690    -0.7730    22.9270 ca         1 KQL      -0.186300
     13 C11         12.2690     0.1660    23.9020 ca         1 KQL      -0.053000
     14 C9           9.9280    -0.3290    23.4480 ca         1 KQL      -0.079000
     15 O            9.6320    -1.4490    19.4020 o          1 KQL      -0.568100
     16 C1           5.9960     1.0090    19.8360 ca         1 KQL      -0.087300
     17 C            5.4910     1.0330    21.2750 c3         1 KQL      -0.051800
     18 N            6.8880     1.0080    17.1450 nb         1 KQL      -0.644000
     19 C3           5.8350     1.7610    17.5300 ca         1 KQL       0.315900
     20 C2           5.3610     1.7890    18.8510 ca         1 KQL      -0.142000
     21 H1           7.2920    -0.5810    21.3310 hn         1 KQL       0.149000
     22 H2           8.3400    -0.3370    17.7190 h4         1 KQL       0.048100
     23 H3           8.3460    -2.1370    22.3230 hc         1 KQL       0.074200
     24 H4           9.6240    -3.0610    21.4800 hc         1 KQL       0.074200
     25 H5          10.6060     1.1150    24.9080 ha         1 KQL       0.123000
     26 H6          11.9700    -2.2310    21.4770 ha         1 KQL       0.140000
     27 H7          13.0110     0.7270    24.4680 ha         1 KQL       0.134000
     28 H8           8.8760    -0.1470    23.6550 ha         1 KQL       0.110000
     29 H9           5.1600     0.0380    21.5940 hc         1 KQL       0.045700
     30 H10          6.2770     1.3660    21.9640 hc         1 KQL       0.045700
     31 H11          4.6410     1.7150    21.3960 hc         1 KQL       0.045700
     32 H12          5.3540     2.3580    16.7560 h4         1 KQL       0.023100
     33 H13          4.5080     2.4140    19.0990 ha         1 KQL       0.122000
     34 C14         14.1540    -1.0280    22.6460 c3         1 KQL       0.344300
@<TRIPOS>BOND
     1     1     3 1   
     2     1     4 1   
     3     1    21 1   
     4     2     3 ar  
     5     2    18 ar  
     6     2    22 1   
     7     3    16 ar  
     8     4     5 1   
     9     4    15 2   
    10     5     6 1   
    11     5    23 1   
    12     5    24 1   
    13     6     8 ar  
    14     6    14 ar  
    15     7    13 ar  
    16     7    14 ar  
    17     7    25 1   
    18     8    12 ar  
    19     8    26 1   
    20     9    34 1   
    21    10    34 1   
    22    11    34 1   
    23    12    13 ar  
    24    12    34 1   
    25    13    27 1   
    26    14    28 1   
    27    16    17 1   
    28    16    20 ar  
    29    17    29 1   
    30    17    30 1   
    31    17    31 1   
    32    18    19 ar  
    33    19    20 ar  
    34    19    32 1   
    35    20    33 1   
@<TRIPOS>SUBSTRUCTURE
     1 KQL         1 TEMP              0 ****  ****    0 ROOT
