@<TRIPOS>MOLECULE
KQN
   45    44     1     0     0
SMALL
bcc


@<TRIPOS>ATOM
      1 N2           2.1220    -2.0360     5.0430 n2         1 KQN      -0.437200
      2 N4          -0.1290    -2.4580     5.5160 n1         1 KQN      -0.081000
      3 CA           8.0300    -8.8660    10.8410 c3         1 KQN      -0.046300
      4 C            8.9080   -10.0820    10.6510 c          1 KQN       0.549900
      5 CB           7.0950    -9.0480    12.0520 c3         1 KQN       0.151100
      6 O            9.0320   -10.6790     9.6150 o          1 KQN      -0.499100
      7 OB1          6.1300   -10.0440    11.7890 oh         1 KQN      -0.598800
      8 CB1          6.3700    -7.7590    12.3830 c3         1 KQN      -0.092100
      9 N            7.2960    -8.5410     9.6550 ns         1 KQN      -0.543900
     10 CAO          7.7090    -7.6400     8.7480 c          1 KQN       0.669100
     11 OAR          8.7140    -6.9610     8.8780 o          1 KQN      -0.604100
     12 CAP          6.8470    -7.5680     7.4870 c3         1 KQN       0.044700
     13 CAS          7.5140    -8.3850     6.3870 c3         1 KQN      -0.107100
     14 N1           6.6890    -6.2030     7.0580 ns         1 KQN      -0.564900
     15 C7           6.0840    -5.2870     7.8370 c          1 KQN       0.670100
     16 C8           5.9880    -3.8940     7.2530 c3         1 KQN      -0.160400
     17 C9           5.2400    -3.8290     5.9190 c3         1 KQN      -0.068400
     18 C10          3.8170    -4.3680     6.0010 c3         1 KQN      -0.073400
     19 C11          3.0680    -4.3230     4.6720 c3         1 KQN      -0.096400
     20 C12          2.8330    -2.9260     4.1120 c3         1 KQN       0.156800
     21 N3           0.9550    -2.3000     5.2580 n1         1 KQN       0.230000
     22 OC7          5.6410    -5.5800     8.9390 o          1 KQN      -0.607100
     23 H2           8.7140    -8.0430    11.0780 h1         1 KQN       0.106700
     24 H4           7.7240    -9.3250    12.9080 h1         1 KQN       0.032700
     25 H5           6.5190   -10.9160    11.9130 ho         1 KQN       0.404000
     26 H6           5.7450    -7.8900    13.2660 hc         1 KQN       0.054700
     27 H7           7.0880    -6.9660    12.5910 hc         1 KQN       0.054700
     28 H8           5.7360    -7.4330    11.5580 hc         1 KQN       0.054700
     29 H9           6.4620    -9.0770     9.4720 hn         1 KQN       0.331500
     30 H10          5.8620    -7.9970     7.6940 h1         1 KQN       0.066700
     31 H11          7.6410    -9.4190     6.7050 hc         1 KQN       0.052700
     32 H12          6.9030    -8.3820     5.4850 hc         1 KQN       0.052700
     33 H13          8.4970    -7.9810     6.1420 hc         1 KQN       0.052700
     34 H14          7.1150    -5.9200     6.1900 hn         1 KQN       0.322500
     35 H15          7.0000    -3.4980     7.1240 hc         1 KQN       0.072700
     36 H16          5.4880    -3.2600     7.9870 hc         1 KQN       0.072700
     37 H17          5.7920    -4.3700     5.1440 hc         1 KQN       0.041200
     38 H18          5.2310    -2.7840     5.6020 hc         1 KQN       0.041200
     39 H19          3.2600    -3.8140     6.7630 hc         1 KQN       0.052200
     40 H20          3.8370    -5.4080     6.3370 hc         1 KQN       0.052200
     41 H21          2.1060    -4.8320     4.7800 hc         1 KQN       0.043700
     42 H22          3.6240    -4.8850     3.9160 hc         1 KQN       0.043700
     43 H23          3.7750    -2.4230     3.9030 h1         1 KQN       0.059700
     44 H24          2.2910    -2.9910     3.1640 h1         1 KQN       0.059700
     45 H3           9.4570   -10.3870    11.5610 h4         1 KQN      -0.015800
@<TRIPOS>BOND
     1     1    20 1   
     2     1    21 1   
     3     2    21 3   
     4     3     4 1   
     5     3     5 1   
     6     3     9 1   
     7     3    23 1   
     8     4     6 2   
     9     4    45 1   
    10     5     7 1   
    11     5     8 1   
    12     5    24 1   
    13     7    25 1   
    14     8    26 1   
    15     8    27 1   
    16     8    28 1   
    17     9    10 1   
    18     9    29 1   
    19    10    11 2   
    20    10    12 1   
    21    12    13 1   
    22    12    14 1   
    23    12    30 1   
    24    13    31 1   
    25    13    32 1   
    26    13    33 1   
    27    14    15 1   
    28    14    34 1   
    29    15    16 1   
    30    15    22 2   
    31    16    17 1   
    32    16    35 1   
    33    16    36 1   
    34    17    18 1   
    35    17    37 1   
    36    17    38 1   
    37    18    19 1   
    38    18    39 1   
    39    18    40 1   
    40    19    20 1   
    41    19    41 1   
    42    19    42 1   
    43    20    43 1   
    44    20    44 1   
@<TRIPOS>SUBSTRUCTURE
     1 KQN         1 TEMP              0 ****  ****    0 ROOT
