@<TRIPOS>MOLECULE
KQN
   45    44     1     0     0
SMALL
No Charge or Current Charge


@<TRIPOS>ATOM
      1 N2           2.1820    -1.5600     4.1170 n2         1 KQN      -0.437200
      2 N4           0.2620    -1.5570     2.7180 n1         1 KQN      -0.081000
      3 CA           8.8860    -9.3470    10.6260 c3         1 KQN      -0.046300
      4 C            9.5250   -10.6810    10.1790 c          1 KQN       0.549900
      5 CB           8.5110    -9.4060    12.1320 c3         1 KQN       0.174300
      6 O            9.1340   -11.3500     9.2250 o          1 KQN      -0.499100
      7 OB1          7.4850   -10.3850    12.3320 oh         1 KQN      -0.661000
      8 CB1          8.0330    -8.0560    12.7030 c3         1 KQN      -0.092100
      9 N            7.7380    -8.9860     9.7480 ns         1 KQN      -0.476900
     10 CAO          7.4390    -7.7130     9.3050 c          1 KQN       0.602100
     11 OAR          8.1450    -6.7500     9.5830 o          1 KQN      -0.604100
     12 CAP          6.1500    -7.5990     8.4360 c3         1 KQN       0.044700
     13 CAS          6.2980    -8.3420     7.0860 c3         1 KQN      -0.107100
     14 N1           5.7980    -6.1800     8.2150 ns         1 KQN      -0.497900
     15 C7           4.5580    -5.7180     7.8350 c          1 KQN       0.603100
     16 C8           4.4590    -4.1970     7.6670 c3         1 KQN      -0.160400
     17 C9           4.5360    -3.7440     6.1860 c3         1 KQN      -0.068400
     18 C10          3.3240    -4.1690     5.3190 c3         1 KQN      -0.073400
     19 C11          3.4090    -3.7140     3.8390 c3         1 KQN      -0.096400
     20 C12          3.4120    -2.1820     3.6050 c3         1 KQN       0.156800
     21 N3           1.2160    -1.5170     3.3370 n1         1 KQN       0.230000
     22 OC7          3.6010    -6.4650     7.6870 o          1 KQN      -0.607100
     23 H2           9.6760    -8.5940    10.5080 h1         1 KQN       0.106700
     24 H4           9.4110    -9.6980    12.6900 h1         1 KQN       0.032700
     25 H5           7.2980   -10.4150    13.2960 ho         1 KQN       0.443000
     26 H6           7.8700    -8.1290    13.7850 hc         1 KQN       0.054700
     27 H7           8.7850    -7.2770    12.5290 hc         1 KQN       0.054700
     28 H8           7.0930    -7.7370    12.2370 hc         1 KQN       0.054700
     29 H9           7.0970    -9.7240     9.4770 hn         1 KQN       0.331500
     30 H10          5.3410    -8.0710     9.0090 h1         1 KQN       0.066700
     31 H11          6.5180    -9.4050     7.2440 hc         1 KQN       0.052700
     32 H12          5.3730    -8.2770     6.5010 hc         1 KQN       0.052700
     33 H13          7.1110    -7.9080     6.4920 hc         1 KQN       0.052700
     34 H14          6.5240    -5.4840     8.3490 hn         1 KQN       0.322500
     35 H15          5.2960    -3.7210     8.1920 hc         1 KQN       0.072700
     36 H16          3.5100    -3.8520     8.0920 hc         1 KQN       0.072700
     37 H17          5.4590    -4.1330     5.7370 hc         1 KQN       0.041200
     38 H18          4.6170    -2.6510     6.1730 hc         1 KQN       0.041200
     39 H19          2.4000    -3.7860     5.7690 hc         1 KQN       0.052200
     40 H20          3.2420    -5.2620     5.3270 hc         1 KQN       0.052200
     41 H21          2.5680    -4.1530     3.2880 hc         1 KQN       0.043700
     42 H22          4.3180    -4.1350     3.3920 hc         1 KQN       0.043700
     43 H23          4.2900    -1.7420     4.0950 h1         1 KQN       0.059700
     44 H24          3.5260    -1.9920     2.5290 h1         1 KQN       0.059700
     45 H3          10.3960   -11.0150    10.7850 h4         1 KQN      -0.015800
@<TRIPOS>BOND
     1     1    20 1   
     2     1    21 1   
     3     2    21 3   
     4     3     4 1   
     5     3     5 1   
     6     3     9 1   
     7     3    23 1   
     8     4     6 2   
     9     4    45 1   
    10     5     7 1   
    11     5     8 1   
    12     5    24 1   
    13     7    25 1   
    14     8    26 1   
    15     8    27 1   
    16     8    28 1   
    17     9    10 1   
    18     9    29 1   
    19    10    11 2   
    20    10    12 1   
    21    12    13 1   
    22    12    14 1   
    23    12    30 1   
    24    13    31 1   
    25    13    32 1   
    26    13    33 1   
    27    14    15 1   
    28    14    34 1   
    29    15    16 1   
    30    15    22 2   
    31    16    17 1   
    32    16    35 1   
    33    16    36 1   
    34    17    18 1   
    35    17    37 1   
    36    17    38 1   
    37    18    19 1   
    38    18    39 1   
    39    18    40 1   
    40    19    20 1   
    41    19    41 1   
    42    19    42 1   
    43    20    43 1   
    44    20    44 1   
@<TRIPOS>SUBSTRUCTURE
     1 KQN         1 TEMP              0 ****  ****    0 ROOT
