@<TRIPOS>MOLECULE
KQO
   62    66     1     0     0
SMALL
No Charge or Current Charge


@<TRIPOS>ATOM
      1 N          -11.0470    -8.6790    15.1420 n          1 KQO      -0.402800
      2 CA         -11.1140   -10.1390    14.8510 c5         1 KQO       0.037700
      3 C          -10.0590   -11.0440    15.5860 c          1 KQO       0.615100
      4 O           -9.3370   -10.7360    16.5270 o          1 KQO      -0.561100
      5 CB         -12.5480   -10.4360    15.3780 c5         1 KQO      -0.111400
      6 CG         -12.5930    -9.6610    16.7210 c5         1 KQO       0.177300
      7 CD         -11.7000    -8.4090    16.4580 c5         1 KQO       0.088000
      8 CAA         -6.5460    -4.6870    15.3560 ca         1 KQO      -0.165000
      9 CAB         -7.6330    -5.1780    14.6110 ca         1 KQO      -0.065500
     10 CAC         -8.7340    -5.7890    15.2590 ca         1 KQO      -0.127300
     11 CAD         -8.6990    -5.9030    16.6670 ca         1 KQO      -0.065500
     12 CAE         -7.6110    -5.4120    17.4100 ca         1 KQO      -0.165000
     13 CAF         -6.5270    -4.7970    16.7530 ca         1 KQO       0.140100
     14 CAI         -9.9630    -6.3590    14.4840 c6         1 KQO      -0.048700
     15 CAJ         -9.9020    -6.0880    12.9350 c6         1 KQO      -0.061400
     16 CAK        -11.1780    -6.5210    12.1720 c6         1 KQO      -0.076400
     17 CAL        -12.4000    -5.7340    12.6840 c6         1 KQO      -0.074400
     18 CAM        -12.5630    -5.9280    14.2040 c6         1 KQO      -0.076400
     19 CAN        -11.2500    -5.5890    14.9740 c6         1 KQO      -0.061400
     20 CAO         -9.9320    -7.9280    14.6810 c          1 KQO       0.617100
     21 CAW         -9.2990   -13.4300    15.2300 ca         1 KQO       0.459900
     22 CAY         -9.0530   -15.6210    14.6230 ca         1 KQO       0.231700
     23 CAZ         -8.0240   -15.8120    15.4950 ca         1 KQO      -0.108200
     24 CBA         -7.5640   -14.7740    16.3110 ca         1 KQO      -0.069000
     25 CBB         -8.2330   -13.5380    16.1660 ca         1 KQO      -0.132000
     26 CBE         -9.2300   -16.9030    13.9720 cc         1 KQO       0.248200
     27 FBG        -12.0760   -10.4400    17.7580 f          1 KQO      -0.251000
     28 NAV        -10.0540   -12.2790    14.9740 ns         1 KQO      -0.319900
     29 NAX         -9.7200   -14.4570    14.4520 nb         1 KQO      -0.676000
     30 NBC         -7.6100   -17.1260    15.3760 na         1 KQO      -0.064400
     31 NBD         -8.3600   -17.8290    14.4200 nd         1 KQO      -0.507100
     32 OAG         -5.4320    -4.2950    17.4270 os         1 KQO      -0.347100
     33 OBH         -8.8940    -8.5290    14.4210 o          1 KQO      -0.610100
     34 H1         -11.0400   -10.3290    13.7720 h1         1 KQO       0.075700
     35 H2         -13.3000   -10.0400    14.6850 hc         1 KQO       0.073200
     36 H3         -12.7580   -11.5060    15.4960 hc         1 KQO       0.073200
     37 H4         -13.6190    -9.3840    16.9980 h1         1 KQO       0.068700
     38 H5         -10.9570    -8.2720    17.2550 h1         1 KQO       0.067700
     39 H6         -12.3440    -7.5260    16.4390 h1         1 KQO       0.067700
     40 H8          -7.5920    -5.0740    13.5310 ha         1 KQO       0.120500
     41 H9          -9.5170    -6.3800    17.2010 ha         1 KQO       0.120500
     42 H10         -7.6280    -5.5200    18.4900 ha         1 KQO       0.124000
     43 H11         -4.3740    -3.9060    19.1870 h1         1 KQO       0.041033
     44 H12         -6.1410    -3.8200    19.3420 h1         1 KQO       0.041033
     45 H13         -5.3290    -5.4030    19.2050 h1         1 KQO       0.041033
     46 H14         -9.0370    -6.6040    12.4950 hc         1 KQO       0.047200
     47 H15         -9.7420    -5.0160    12.7500 hc         1 KQO       0.047200
     48 H16        -11.3470    -7.6010    12.2850 hc         1 KQO       0.046700
     49 H17        -11.0470    -6.3380    11.0970 hc         1 KQO       0.046700
     50 H18        -12.2780    -4.6650    12.4570 hc         1 KQO       0.038700
     51 H19        -13.3090    -6.0650    12.1630 hc         1 KQO       0.038700
     52 H20        -13.3770    -5.2870    14.5690 hc         1 KQO       0.046700
     53 H21        -12.8880    -6.9580    14.3920 hc         1 KQO       0.046700
     54 H22        -11.0650    -4.5130    14.8490 hc         1 KQO       0.047200
     55 H23        -11.4010    -5.7020    16.0530 hc         1 KQO       0.047200
     56 H24         -6.7420   -14.9070    17.0120 ha         1 KQO       0.128000
     57 H25         -7.9190   -12.6920    16.7650 ha         1 KQO       0.161000
     58 H26         -9.9330   -17.2090    13.2100 h4         1 KQO       0.059800
     59 H27        -10.7110   -12.3900    14.2140 hn         1 KQO       0.165000
     60 H28         -6.8560   -17.5730    15.8990 hn         1 KQO       0.379000
     61 H7          -5.7100    -4.2180    14.8440 ha         1 KQO       0.124000
     62 CAH         -5.3170    -4.3610    18.8600 c3         1 KQO       0.148900
@<TRIPOS>BOND
     1     1     2 1   
     2     1     7 1   
     3     1    20 1   
     4     2     3 1   
     5     2     5 1   
     6     2    34 1   
     7     3     4 2   
     8     3    28 1   
     9     5     6 1   
    10     5    35 1   
    11     5    36 1   
    12     6     7 1   
    13     6    27 1   
    14     6    37 1   
    15     7    38 1   
    16     7    39 1   
    17     8     9 ar  
    18     8    13 ar  
    19     8    61 1   
    20     9    10 ar  
    21     9    40 1   
    22    10    11 ar  
    23    10    14 1   
    24    11    12 ar  
    25    11    41 1   
    26    12    13 ar  
    27    12    42 1   
    28    13    32 1   
    29    14    15 1   
    30    14    19 1   
    31    14    20 1   
    32    15    16 1   
    33    15    46 1   
    34    15    47 1   
    35    16    17 1   
    36    16    48 1   
    37    16    49 1   
    38    17    18 1   
    39    17    50 1   
    40    17    51 1   
    41    18    19 1   
    42    18    52 1   
    43    18    53 1   
    44    19    54 1   
    45    19    55 1   
    46    20    33 2   
    47    21    25 ar  
    48    21    28 1   
    49    21    29 ar  
    50    22    23 ar  
    51    22    26 1   
    52    22    29 ar  
    53    23    24 ar  
    54    23    30 1   
    55    24    25 ar  
    56    24    56 1   
    57    25    57 1   
    58    26    31 2   
    59    26    58 1   
    60    28    59 1   
    61    30    31 1   
    62    30    60 1   
    63    32    62 1   
    64    43    62 1   
    65    44    62 1   
    66    45    62 1   
@<TRIPOS>SUBSTRUCTURE
     1 KQO         1 TEMP              0 ****  ****    0 ROOT
