@<TRIPOS>MOLECULE
KQO
   62    66     1     0     0
SMALL
abcg2


@<TRIPOS>ATOM
      1 N          -11.1120    -8.6490    15.7110 n          1 KQO      -0.402800
      2 CA         -11.3970   -10.0780    15.8140 c5         1 KQO       0.037700
      3 C          -10.1080   -10.9130    15.7710 c          1 KQO       0.615100
      4 O           -9.0590   -10.5270    16.2580 o          1 KQO      -0.561100
      5 CB         -12.1390   -10.2150    17.1580 c5         1 KQO      -0.111400
      6 CG         -11.7410    -8.9880    17.9580 c5         1 KQO       0.177300
      7 CD         -11.5050    -7.9120    16.9170 c5         1 KQO       0.088000
      8 CAA         -6.9610    -6.8520    16.4280 ca         1 KQO      -0.165000
      9 CAB         -7.9830    -7.1510    15.5460 ca         1 KQO      -0.065500
     10 CAC         -9.1200    -6.3400    15.4370 ca         1 KQO      -0.127300
     11 CAD         -9.1880    -5.2180    16.2550 ca         1 KQO      -0.065500
     12 CAE         -8.1650    -4.8960    17.1480 ca         1 KQO      -0.165000
     13 CAF         -7.0420    -5.7130    17.2360 ca         1 KQO       0.140100
     14 CAI        -10.1930    -6.6990    14.4060 c6         1 KQO      -0.048700
     15 CAJ         -9.5910    -6.4610    12.9940 c6         1 KQO      -0.061400
     16 CAK        -10.5750    -6.6410    11.8340 c6         1 KQO      -0.076400
     17 CAL        -11.8610    -5.8400    12.0310 c6         1 KQO      -0.074400
     18 CAM        -12.4700    -6.1200    13.4040 c6         1 KQO      -0.076400
     19 CAN        -11.4590    -5.8210    14.5100 c6         1 KQO      -0.061400
     20 CAO        -10.5220    -8.2030    14.5730 c          1 KQO       0.617100
     21 CAW         -9.3830   -13.1820    14.9960 ca         1 KQO       0.459900
     22 CAY         -9.0570   -15.2310    14.0810 ca         1 KQO       0.231700
     23 CAZ         -7.7300   -15.2850    14.5580 ca         1 KQO      -0.108200
     24 CBA         -7.2150   -14.2170    15.2960 ca         1 KQO      -0.069000
     25 CBB         -8.0600   -13.1530    15.5140 ca         1 KQO      -0.132000
     26 CBE         -9.2410   -16.4570    13.3840 cc         1 KQO       0.248200
     27 FBG        -10.5450    -9.2430    18.6680 f          1 KQO      -0.251000
     28 NAV        -10.2890   -12.1300    15.1850 ns         1 KQO      -0.319900
     29 NAX         -9.8800   -14.1900    14.2970 nb         1 KQO      -0.676000
     30 NBC         -7.2280   -16.4760    14.1390 na         1 KQO      -0.064400
     31 NBD         -8.1360   -17.1840    13.4310 nd         1 KQO      -0.507100
     32 OAG         -5.9860    -5.4900    18.0670 os         1 KQO      -0.347100
     33 OBH        -10.2310    -9.0230    13.7000 o          1 KQO      -0.610100
     34 H1         -12.0350   -10.3850    14.9850 h1         1 KQO       0.075700
     35 H2         -13.2140   -10.1820    16.9810 hc         1 KQO       0.073200
     36 H3         -11.9090   -11.1380    17.6870 hc         1 KQO       0.073200
     37 H4         -12.4780    -8.6950    18.7030 h1         1 KQO       0.068700
     38 H5         -10.7370    -7.2100    17.2320 h1         1 KQO       0.067700
     39 H6         -12.4390    -7.3690    16.7610 h1         1 KQO       0.067700
     40 H8          -7.8970    -8.0390    14.9340 ha         1 KQO       0.120500
     41 H9         -10.0490    -4.5650    16.2190 ha         1 KQO       0.120500
     42 H10         -8.2620    -4.0140    17.7630 ha         1 KQO       0.124000
     43 H11         -5.0850    -4.3390    19.4570 h1         1 KQO       0.041033
     44 H12         -6.0720    -3.4190    18.2920 h1         1 KQO       0.041033
     45 H13         -6.8620    -4.3600    19.5860 h1         1 KQO       0.041033
     46 H14         -8.7290    -7.1130    12.8540 hc         1 KQO       0.047200
     47 H15         -9.2180    -5.4330    12.9940 hc         1 KQO       0.047200
     48 H16        -10.8220    -7.6980    11.7350 hc         1 KQO       0.046700
     49 H17        -10.0820    -6.3390    10.9050 hc         1 KQO       0.046700
     50 H18        -11.6430    -4.7690    11.9570 hc         1 KQO       0.038700
     51 H19        -12.5760    -6.0750    11.2390 hc         1 KQO       0.038700
     52 H20        -13.3610    -5.5080    13.5580 hc         1 KQO       0.046700
     53 H21        -12.7930    -7.1650    13.4630 hc         1 KQO       0.046700
     54 H22        -11.1410    -4.7800    14.4070 hc         1 KQO       0.047200
     55 H23        -11.9280    -5.8980    15.4870 hc         1 KQO       0.047200
     56 H24         -6.2040   -14.2160    15.6810 ha         1 KQO       0.128000
     57 H25         -7.7360   -12.2920    16.0720 ha         1 KQO       0.161000
     58 H26        -10.1160   -16.8180    12.8660 h4         1 KQO       0.059800
     59 H27        -11.1950   -12.3160    14.7780 hn         1 KQO       0.165000
     60 H28         -6.3080   -16.8550    14.2930 hn         1 KQO       0.379000
     61 H7          -6.0890    -7.4900    16.5040 ha         1 KQO       0.124000
     62 CAH         -6.0160    -4.3290    18.8950 c3         1 KQO       0.148900
@<TRIPOS>BOND
     1     1     2 1   
     2     1     7 1   
     3     1    20 1   
     4     2     3 1   
     5     2     5 1   
     6     2    34 1   
     7     3     4 2   
     8     3    28 1   
     9     5     6 1   
    10     5    35 1   
    11     5    36 1   
    12     6     7 1   
    13     6    27 1   
    14     6    37 1   
    15     7    38 1   
    16     7    39 1   
    17     8     9 ar  
    18     8    13 ar  
    19     8    61 1   
    20     9    10 ar  
    21     9    40 1   
    22    10    11 ar  
    23    10    14 1   
    24    11    12 ar  
    25    11    41 1   
    26    12    13 ar  
    27    12    42 1   
    28    13    32 1   
    29    14    15 1   
    30    14    19 1   
    31    14    20 1   
    32    15    16 1   
    33    15    46 1   
    34    15    47 1   
    35    16    17 1   
    36    16    48 1   
    37    16    49 1   
    38    17    18 1   
    39    17    50 1   
    40    17    51 1   
    41    18    19 1   
    42    18    52 1   
    43    18    53 1   
    44    19    54 1   
    45    19    55 1   
    46    20    33 2   
    47    21    25 ar  
    48    21    28 1   
    49    21    29 ar  
    50    22    23 ar  
    51    22    26 1   
    52    22    29 ar  
    53    23    24 ar  
    54    23    30 1   
    55    24    25 ar  
    56    24    56 1   
    57    25    57 1   
    58    26    31 2   
    59    26    58 1   
    60    28    59 1   
    61    30    31 1   
    62    30    60 1   
    63    32    62 1   
    64    43    62 1   
    65    44    62 1   
    66    45    62 1   
@<TRIPOS>SUBSTRUCTURE
     1 KQO         1 TEMP              0 ****  ****    0 ROOT
