@<TRIPOS>MOLECULE
KQP
   47    49     1     0     0
SMALL
No Charge or Current Charge


@<TRIPOS>ATOM
      1 C10         -3.2080     0.8950     0.9810 ca         1 KQP      -0.095000
      2 C13          1.9620    -2.2560    -0.4170 ca         1 KQP       0.122000
      3 C15          2.8940    -1.2120    -0.3270 ca         1 KQP      -0.094000
      4 C17          1.0770     0.3660    -0.0150 ca         1 KQP      -0.093000
      5 C20          4.0360     1.2890     2.0640 cy         1 KQP      -0.086400
      6 C21          3.2260     2.2900     1.1820 cy         1 KQP      -0.082900
      7 C22          3.6780     1.9480    -1.3780 c2         1 KQP       0.636200
      8 C02         -5.6740     0.4370     0.3190 c3         1 KQP       0.231300
      9 C03         -6.4210    -0.8180     0.8260 c3         1 KQP      -0.118100
     10 C05         -4.1540     0.1640     0.2250 ca         1 KQP      -0.066300
     11 C06         -3.6740    -0.8450    -0.6390 ca         1 KQP      -0.095000
     12 C07         -2.2990    -1.1150    -0.7440 ca         1 KQP      -0.101500
     13 C08         -1.3480    -0.3870     0.0090 cp         1 KQP      -0.039000
     14 C09         -1.8340     0.6240     0.8730 ca         1 KQP      -0.101500
     15 C11          0.1180    -0.6750    -0.1020 cp         1 KQP      -0.016000
     16 C12          0.5900    -1.9940    -0.3010 ca         1 KQP      -0.094000
     17 C16          2.4620     0.1120    -0.1070 ca         1 KQP      -0.047300
     18 C18          3.4690     1.2790    -0.0190 cy         1 KQP      -0.127000
     19 C19          4.8240     0.9840     0.7510 cy         1 KQP      -0.082900
     20 N23          3.2210     3.0770    -1.7060 n2         1 KQP      -0.848100
     21 N24          4.4320     1.3080    -2.2940 nv         1 KQP      -1.039200
     22 O04         -5.9560     1.4890     1.2450 oh         1 KQP      -0.660000
     23 H1          -3.5260     1.6800     1.6630 ha         1 KQP       0.121500
     24 H2           3.9490    -1.4430    -0.4380 ha         1 KQP       0.125000
     25 H3           0.7310     1.3880     0.1050 ha         1 KQP       0.120000
     26 H4           4.6170     1.7300     2.8810 hc         1 KQP       0.056700
     27 H5           3.4560     0.4480     2.4610 hc         1 KQP       0.056700
     28 H6           2.1910     2.4600     1.4940 hc         1 KQP       0.056450
     29 H7           3.7080     3.2700     1.0720 hc         1 KQP       0.056450
     30 H8          -7.2980     1.1310    -0.9850 hc         1 KQP       0.043033
     31 H9          -5.6980     1.7770    -1.4100 hc         1 KQP       0.043033
     32 H10         -6.1150     0.0990    -1.8050 hc         1 KQP       0.043033
     33 H11         -6.3120    -1.6550     0.1260 hc         1 KQP       0.043033
     34 H12         -6.0240    -1.1360     1.7980 hc         1 KQP       0.043033
     35 H13         -7.4930    -0.6200     0.9440 hc         1 KQP       0.043033
     36 H14         -4.3670    -1.4280    -1.2400 ha         1 KQP       0.121500
     37 H15         -1.9690    -1.8910    -1.4300 ha         1 KQP       0.114500
     38 H16         -1.1380     1.1970     1.4810 ha         1 KQP       0.114500
     39 H17         -0.1100    -2.8220    -0.3610 ha         1 KQP       0.132000
     40 H18          5.6330     1.6950     0.5420 hc         1 KQP       0.056450
     41 H19          5.2430    -0.0240     0.6770 hc         1 KQP       0.056450
     42 H20          2.6810     3.4380    -0.9090 hn         1 KQP       0.385400
     43 H21          5.1240     0.6890    -1.8920 hn         1 KQP       0.472500
     44 H22          4.7770     1.9300    -3.0140 hn         1 KQP       0.472500
     45 H23         -6.9300     1.6050     1.2520 ho         1 KQP       0.445000
     46 Cl14         2.5190    -3.9040    -0.6780 cl         1 KQP      -0.207000
     47 C01         -6.2300     0.8870    -1.0520 c3         1 KQP      -0.118100
@<TRIPOS>BOND
     1     1    10 ar  
     2     1    14 ar  
     3     1    23 1   
     4     2     3 ar  
     5     2    16 ar  
     6     2    46 1   
     7     3    17 ar  
     8     3    24 1   
     9     4    15 ar  
    10     4    17 ar  
    11     4    25 1   
    12     5     6 1   
    13     5    19 1   
    14     5    26 1   
    15     5    27 1   
    16     6    18 1   
    17     6    28 1   
    18     6    29 1   
    19     7    18 1   
    20     7    20 2   
    21     7    21 1   
    22     8     9 1   
    23     8    10 1   
    24     8    22 1   
    25     8    47 1   
    26     9    33 1   
    27     9    34 1   
    28     9    35 1   
    29    10    11 ar  
    30    11    12 ar  
    31    11    36 1   
    32    12    13 ar  
    33    12    37 1   
    34    13    14 ar  
    35    13    15 1   
    36    14    38 1   
    37    15    16 ar  
    38    16    39 1   
    39    17    18 1   
    40    18    19 1   
    41    19    40 1   
    42    19    41 1   
    43    20    42 1   
    44    21    43 1   
    45    21    44 1   
    46    22    45 1   
    47    30    47 1   
    48    31    47 1   
    49    32    47 1   
@<TRIPOS>SUBSTRUCTURE
     1 KQP         1 TEMP              0 ****  ****    0 ROOT
