@<TRIPOS>MOLECULE
KQP
   47    49     1     0     0
SMALL
bcc


@<TRIPOS>ATOM
      1 C10         -3.1580     0.8600     0.9940 ca         1 KQP      -0.113000
      2 C13          1.9380    -2.2180    -0.3320 ca         1 KQP       0.030400
      3 C15          2.8720    -1.2000    -0.2190 ca         1 KQP      -0.112000
      4 C17          1.0680     0.3510     0.0580 ca         1 KQP      -0.111000
      5 C20          4.2500     1.4000     2.0300 cy         1 KQP      -0.086400
      6 C21          3.1510     2.1770     1.2880 cy         1 KQP      -0.082900
      7 C22          3.4010     1.9430    -1.3060 c2         1 KQP       0.636200
      8 C02         -5.5680     0.4600     0.2660 c3         1 KQP       0.208100
      9 C03         -6.3210    -0.8050     0.6870 c3         1 KQP      -0.118100
     10 C05         -4.0770     0.1800     0.2020 ca         1 KQP      -0.066300
     11 C06         -3.5890    -0.7880    -0.6760 ca         1 KQP      -0.113000
     12 C07         -2.2360    -1.0690    -0.7590 ca         1 KQP      -0.119500
     13 C08         -1.3140    -0.3840     0.0330 cp         1 KQP      -0.039000
     14 C09         -1.8000     0.5820     0.9090 ca         1 KQP      -0.119500
     15 C11          0.1310    -0.6720    -0.0550 cp         1 KQP      -0.016000
     16 C12          0.5800    -1.9790    -0.2500 ca         1 KQP      -0.112000
     17 C16          2.4360     0.1040    -0.0120 ca         1 KQP      -0.047300
     18 C18          3.4010     1.2720     0.0550 cy         1 KQP      -0.127000
     19 C19          4.7870     0.9380     0.6680 cy         1 KQP      -0.082900
     20 N23          2.7530     3.0020    -1.6020 n2         1 KQP      -0.848100
     21 N24          4.1080     1.2680    -2.2500 nv         1 KQP      -0.928800
     22 O04         -5.7570     1.4740     1.2340 oh         1 KQP      -0.597800
     23 H1          -3.4880     1.6130     1.6960 ha         1 KQP       0.139500
     24 H2           3.9250    -1.4310    -0.2950 ha         1 KQP       0.143000
     25 H3           0.7190     1.3690     0.1800 ha         1 KQP       0.138000
     26 H4           4.9220     1.9720     2.6670 hc         1 KQP       0.056700
     27 H5           3.8390     0.5690     2.6040 hc         1 KQP       0.056700
     28 H6           2.1500     2.1870     1.7180 hc         1 KQP       0.056450
     29 H7           3.4570     3.2060     1.0920 hc         1 KQP       0.056450
     30 H8          -7.1300     1.1920    -1.0500 hc         1 KQP       0.043033
     31 H9          -5.5240     1.8410    -1.4120 hc         1 KQP       0.043033
     32 H10         -5.9420     0.1880    -1.8690 hc         1 KQP       0.043033
     33 H11         -6.1960    -1.6100    -0.0370 hc         1 KQP       0.043033
     34 H12         -5.9690    -1.1650     1.6550 hc         1 KQP       0.043033
     35 H13         -7.3920    -0.6040     0.7650 hc         1 KQP       0.043033
     36 H14         -4.2690    -1.3350    -1.3170 ha         1 KQP       0.139500
     37 H15         -1.8960    -1.8150    -1.4670 ha         1 KQP       0.132500
     38 H16         -1.1160     1.1170     1.5570 ha         1 KQP       0.132500
     39 H17         -0.1220    -2.7990    -0.3120 ha         1 KQP       0.150000
     40 H18          5.5480     1.6220     0.2880 hc         1 KQP       0.056450
     41 H19          5.1720    -0.0770     0.5820 hc         1 KQP       0.056450
     42 H20          2.2460     3.3470    -0.7950 hn         1 KQP       0.385400
     43 H21          4.8450     0.6480    -1.9620 hn         1 KQP       0.417300
     44 H22          4.2690     1.7320    -3.1300 hn         1 KQP       0.417300
     45 H23         -6.6950     1.6920     1.2580 ho         1 KQP       0.406000
     46 CL14         2.4950    -3.8440    -0.5710 cl         1 KQP      -0.115400
     47 C01         -6.0660     0.9480    -1.0980 c3         1 KQP      -0.118100
@<TRIPOS>BOND
     1     1    10 ar  
     2     1    14 ar  
     3     1    23 1   
     4     2     3 ar  
     5     2    16 ar  
     6     2    46 1   
     7     3    17 ar  
     8     3    24 1   
     9     4    15 ar  
    10     4    17 ar  
    11     4    25 1   
    12     5     6 1   
    13     5    19 1   
    14     5    26 1   
    15     5    27 1   
    16     6    18 1   
    17     6    28 1   
    18     6    29 1   
    19     7    18 1   
    20     7    20 2   
    21     7    21 1   
    22     8     9 1   
    23     8    10 1   
    24     8    22 1   
    25     8    47 1   
    26     9    33 1   
    27     9    34 1   
    28     9    35 1   
    29    10    11 ar  
    30    11    12 ar  
    31    11    36 1   
    32    12    13 ar  
    33    12    37 1   
    34    13    14 ar  
    35    13    15 1   
    36    14    38 1   
    37    15    16 ar  
    38    16    39 1   
    39    17    18 1   
    40    18    19 1   
    41    19    40 1   
    42    19    41 1   
    43    20    42 1   
    44    21    43 1   
    45    21    44 1   
    46    22    45 1   
    47    30    47 1   
    48    31    47 1   
    49    32    47 1   
@<TRIPOS>SUBSTRUCTURE
     1 KQP         1 TEMP              0 ****  ****    0 ROOT
