@<TRIPOS>MOLECULE
KQQ
   71    75     1     0     0
SMALL
No Charge or Current Charge


@<TRIPOS>ATOM
      1 OAH         -6.8650    -1.6450    -0.6900 o          1 KQQ      -0.650100
      2 CAF         -7.3690    -0.6460    -0.2030 c          1 KQQ       0.666700
      3 NAG         -8.7030    -0.5700    -0.0650 nt         1 KQQ      -0.598000
      4 CAD         -6.6110     0.5200     0.2640 cc         1 KQQ      -0.396600
      5 SAC         -7.3580     1.9510     0.9700 ss         1 KQQ       0.196000
      6 CAB         -5.7850     2.7010     1.1980 cc         1 KQQ      -0.207000
      7 CAA         -4.7830     1.8780     0.7450 cd         1 KQQ      -0.144000
      8 CAE         -5.2510     0.6440     0.2130 cd         1 KQQ       0.378000
      9 NAI         -4.4600    -0.3430    -0.2970 nu         1 KQQ      -0.915900
     10 C4          -3.1100    -0.5430    -0.5260 ca         1 KQQ       0.468900
     11 N3          -2.2290     0.4270    -0.2350 nb         1 KQQ      -0.341000
     12 C5          -2.6650    -1.7510    -1.0710 ca         1 KQQ      -0.282800
     13 CAP         -3.3700    -2.9350    -1.4760 cc         1 KQQ      -0.186200
     14 CAQ         -2.4140    -3.8160    -1.9530 cd         1 KQQ      -0.191100
     15 NAR         -1.1400    -3.2010    -1.8500 na         1 KQQ      -0.316400
     16 C6          -1.3290    -1.9410    -1.3070 ca         1 KQQ       0.180500
     17 N1          -0.4350    -0.9810    -1.0200 nb         1 KQQ      -0.268000
     18 C2          -0.9370     0.1530    -0.4860 ca         1 KQQ       0.435900
     19 NAS         -0.0770     1.1980    -0.1960 nu         1 KQQ      -0.922900
     20 CAT          1.3160     1.3950    -0.2130 ca         1 KQQ       0.317000
     21 CAY          1.8090     2.7170    -0.3060 ca         1 KQQ       0.070100
     22 OAZ          0.8960     3.7630    -0.3930 os         1 KQQ      -0.361100
     23 CBA          1.3010     5.1410    -0.4910 c3         1 KQQ       0.155900
     24 CAU          2.2290     0.3320    -0.1030 ca         1 KQQ      -0.107000
     25 CAV          3.6250     0.5440    -0.1450 ca         1 KQQ      -0.036000
     26 CAW          4.1190     1.8760    -0.2010 ca         1 KQQ      -0.101300
     27 CAX          3.2020     2.9460    -0.3070 ca         1 KQQ      -0.154000
     28 NBB          4.5360    -0.5600     0.0860 n          1 KQQ      -0.227400
     29 C            4.2610    -1.6380     0.9820 c          1 KQQ       0.598100
     30 CA           5.1080    -2.9510     0.8310 c3         1 KQQ       0.087800
     31 N            4.6180    -4.2300     1.4530 n3         1 KQQ      -0.689600
     32 CBL          5.2710    -5.4260     0.8730 c3         1 KQQ       0.148100
     33 CBM          4.6850    -4.2290     2.9340 c3         1 KQQ       0.148100
     34 O            3.3500    -1.5590     1.8030 o          1 KQQ      -0.549100
     35 CBC          5.9020    -0.3620    -0.4490 c6         1 KQQ       0.097000
     36 CBD          6.4820     0.9210     0.1640 c6         1 KQQ      -0.098400
     37 CBE          5.6460     2.1720    -0.2330 c6         1 KQQ       0.011300
     38 CBG          6.0290     3.3370     0.7350 c3         1 KQQ      -0.081100
     39 CBF          6.0250     2.6270    -1.6770 c3         1 KQQ      -0.081100
     40 H1          -9.2710    -1.3450    -0.3700 hn         1 KQQ       0.317500
     41 H2          -9.1230     0.2520     0.3360 hn         1 KQQ       0.317500
     42 H3          -5.7180     3.6840     1.6460 h4         1 KQQ       0.152000
     43 H4          -3.7400     2.1590     0.7990 ha         1 KQQ       0.172000
     44 H5          -5.0340    -1.1350    -0.5970 hn         1 KQQ       0.552000
     45 H6          -4.4420    -3.1310    -1.4300 ha         1 KQQ       0.214000
     46 H7          -2.5430    -4.8210    -2.3520 h4         1 KQQ       0.216000
     47 H8          -0.2470    -3.6010    -2.1210 hn         1 KQQ       0.363000
     48 H9          -0.5780     2.0760    -0.0610 hn         1 KQQ       0.523000
     49 H10          1.8880     5.4390     0.3860 h1         1 KQQ       0.039033
     50 H11          1.9030     5.3070    -1.3930 h1         1 KQQ       0.039033
     51 H12          0.4200     5.7920    -0.5470 h1         1 KQQ       0.039033
     52 H13          1.8490    -0.6760     0.0030 ha         1 KQQ       0.173000
     53 H14          3.5810     3.9580    -0.3950 ha         1 KQQ       0.114000
     54 H15          5.2060    -3.1030    -0.2520 h1         1 KQQ       0.046200
     55 H16          6.1150    -2.7300     1.2080 h1         1 KQQ       0.046200
     56 H18          6.3490    -5.4240     1.0830 h1         1 KQQ       0.033533
     57 H19          4.8400    -6.3450     1.2920 h1         1 KQQ       0.033533
     58 H20          5.1320    -5.4560    -0.2160 h1         1 KQQ       0.033533
     59 H21          5.7240    -4.1400     3.2780 h1         1 KQQ       0.033533
     60 H22          4.1100    -3.3990     3.3630 h1         1 KQQ       0.033533
     61 H23          4.2700    -5.1620     3.3400 h1         1 KQQ       0.033533
     62 H24          6.5710    -1.1990    -0.2160 h1         1 KQQ       0.055200
     63 H25          5.8550    -0.2780    -1.5440 h1         1 KQQ       0.055200
     64 H26          6.4950     0.8080     1.2570 hc         1 KQQ       0.049700
     65 H27          7.5300     1.0430    -0.1420 hc         1 KQQ       0.049700
     66 H28          7.1160     3.4690     0.7850 hc         1 KQQ       0.035700
     67 H29          5.6090     4.3000     0.4240 hc         1 KQQ       0.035700
     68 H30          5.6750     3.1360     1.7530 hc         1 KQQ       0.035700
     69 H31          5.7650     1.8640    -2.4200 hc         1 KQQ       0.035700
     70 H32          5.4990     3.5460    -1.9620 hc         1 KQQ       0.035700
     71 H33          7.1000     2.8250    -1.7680 hc         1 KQQ       0.035700
@<TRIPOS>BOND
     1     1     2 2   
     2     2     3 1   
     3     2     4 1   
     4     3    40 1   
     5     3    41 1   
     6     4     5 1   
     7     4     8 2   
     8     5     6 1   
     9     6     7 2   
    10     6    42 1   
    11     7     8 1   
    12     7    43 1   
    13     8     9 1   
    14     9    10 1   
    15     9    44 1   
    16    10    11 ar  
    17    10    12 ar  
    18    11    18 ar  
    19    12    13 1   
    20    12    16 ar  
    21    13    14 2   
    22    13    45 1   
    23    14    15 1   
    24    14    46 1   
    25    15    16 1   
    26    15    47 1   
    27    16    17 ar  
    28    17    18 ar  
    29    18    19 1   
    30    19    20 1   
    31    19    48 1   
    32    20    21 ar  
    33    20    24 ar  
    34    21    22 1   
    35    21    27 ar  
    36    22    23 1   
    37    23    49 1   
    38    23    50 1   
    39    23    51 1   
    40    24    25 ar  
    41    24    52 1   
    42    25    26 ar  
    43    25    28 1   
    44    26    27 ar  
    45    26    37 1   
    46    27    53 1   
    47    28    29 1   
    48    28    35 1   
    49    29    30 1   
    50    29    34 2   
    51    30    31 1   
    52    30    54 1   
    53    30    55 1   
    54    31    32 1   
    55    31    33 1   
    56    32    56 1   
    57    32    57 1   
    58    32    58 1   
    59    33    59 1   
    60    33    60 1   
    61    33    61 1   
    62    35    36 1   
    63    35    62 1   
    64    35    63 1   
    65    36    37 1   
    66    36    64 1   
    67    36    65 1   
    68    37    38 1   
    69    37    39 1   
    70    38    66 1   
    71    38    67 1   
    72    38    68 1   
    73    39    69 1   
    74    39    70 1   
    75    39    71 1   
@<TRIPOS>SUBSTRUCTURE
     1 KQQ         1 TEMP              0 ****  ****    0 ROOT
