@<TRIPOS>MOLECULE
KQQ
   71    75     1     0     0
SMALL
abcg2


@<TRIPOS>ATOM
      1 OAH         -7.0890    -1.2980    -0.6560 o          1 KQQ      -0.650100
      2 CAF         -7.5200    -0.1650    -0.4200 c          1 KQQ       0.666700
      3 NAG         -8.8350     0.0930    -0.3820 nt         1 KQQ      -0.598000
      4 CAD         -6.5980     0.9470    -0.1730 cc         1 KQQ      -0.396600
      5 SAC         -7.1210     2.5570     0.1770 ss         1 KQQ       0.196000
      6 CAB         -5.5160     3.1100     0.2930 cc         1 KQQ      -0.207000
      7 CAA         -4.6010     2.1290     0.0800 cd         1 KQQ      -0.144000
      8 CAE         -5.2120     0.8690    -0.1910 cd         1 KQQ       0.378000
      9 NAI         -4.5710    -0.3200    -0.4450 nu         1 KQQ      -0.915900
     10 C4          -3.2430    -0.6070    -0.5040 ca         1 KQQ       0.468900
     11 N3          -2.3390     0.3380    -0.3350 nb         1 KQQ      -0.341000
     12 C5          -2.8440    -1.9340    -0.7510 ca         1 KQQ      -0.282800
     13 CAP         -3.4610    -3.2020    -0.9770 cc         1 KQQ      -0.186200
     14 CAQ         -2.4430    -4.0930    -1.1440 cd         1 KQQ      -0.191100
     15 NAR         -1.2370    -3.4380    -1.0330 na         1 KQQ      -0.316400
     16 C6          -1.4600    -2.1270    -0.7950 ca         1 KQQ       0.180500
     17 N1          -0.5270    -1.1860    -0.6310 nb         1 KQQ      -0.268000
     18 C2          -1.0340     0.0100    -0.4050 ca         1 KQQ       0.435900
     19 NAS         -0.2140     1.0850    -0.2160 nu         1 KQQ      -0.922900
     20 CAT          1.1690     1.1890    -0.1820 ca         1 KQQ       0.317000
     21 CAY          1.6930     2.4930    -0.0360 ca         1 KQQ       0.070100
     22 OAZ          0.7740     3.4790     0.0590 os         1 KQQ      -0.361100
     23 CBA          1.2180     4.8090     0.2300 c3         1 KQQ       0.155900
     24 CAU          2.0600     0.1330    -0.2790 ca         1 KQQ      -0.107000
     25 CAV          3.4410     0.3460    -0.2160 ca         1 KQQ      -0.036000
     26 CAW          3.9640     1.6280    -0.1020 ca         1 KQQ      -0.101300
     27 CAX          3.0560     2.6900    -0.0140 ca         1 KQQ      -0.154000
     28 NBB          4.3300    -0.7550    -0.3300 n          1 KQQ      -0.227400
     29 C            4.2030    -1.8440     0.4860 c          1 KQQ       0.598100
     30 CA           5.3310    -2.8710     0.4310 c3         1 KQQ       0.087800
     31 N            5.1250    -3.9610     1.3500 n3         1 KQQ      -0.689600
     32 CBL          5.8880    -5.1270     0.9520 c3         1 KQQ       0.148100
     33 CBM          5.4430    -3.5860     2.7130 c3         1 KQQ       0.148100
     34 O            3.2350    -2.0080     1.2050 o          1 KQQ      -0.549100
     35 CBC          5.5710    -0.4140    -1.0120 c6         1 KQQ       0.097000
     36 CBD          6.2840     0.6470    -0.1990 c6         1 KQQ      -0.098400
     37 CBE          5.4560     1.9400    -0.1250 c6         1 KQQ       0.011300
     38 CBG          5.8630     2.7150     1.1320 c3         1 KQQ      -0.081100
     39 CBF          5.7580     2.7900    -1.3690 c3         1 KQQ      -0.081100
     40 H1          -9.4880    -0.6520    -0.5610 hn         1 KQQ       0.317500
     41 H2          -9.2270     1.0000    -0.1970 hn         1 KQQ       0.317500
     42 H3          -5.3160     4.1470     0.5160 h4         1 KQQ       0.152000
     43 H4          -3.5370     2.2870     0.1110 ha         1 KQQ       0.172000
     44 H5          -5.2200    -1.0880    -0.5980 hn         1 KQQ       0.552000
     45 H6          -4.5140    -3.4350    -1.0130 ha         1 KQQ       0.214000
     46 H7          -2.4740    -5.1530    -1.3340 h4         1 KQQ       0.216000
     47 H8          -0.3310    -3.8680    -1.1230 hn         1 KQQ       0.363000
     48 H9          -0.7180     1.9460    -0.0750 hn         1 KQQ       0.523000
     49 H10          1.8060     4.9250     1.1440 h1         1 KQQ       0.039033
     50 H11          1.8150     5.1500    -0.6210 h1         1 KQQ       0.039033
     51 H12          0.3270     5.4260     0.3030 h1         1 KQQ       0.039033
     52 H13          1.6750    -0.8630    -0.4110 ha         1 KQQ       0.173000
     53 H14          3.4450     3.6960     0.0740 ha         1 KQQ       0.114000
     54 H15          5.3730    -3.2670    -0.5880 h1         1 KQQ       0.046200
     55 H16          6.3030    -2.3770     0.6010 h1         1 KQQ       0.046200
     56 H18          6.9760    -4.9610     0.9480 h1         1 KQQ       0.033533
     57 H19          5.6840    -5.9490     1.6400 h1         1 KQQ       0.033533
     58 H20          5.5940    -5.4500    -0.0480 h1         1 KQQ       0.033533
     59 H21          6.4990    -3.2980     2.8390 h1         1 KQQ       0.033533
     60 H22          4.8260    -2.7510     3.0400 h1         1 KQQ       0.033533
     61 H23          5.2450    -4.4230     3.3830 h1         1 KQQ       0.033533
     62 H24          6.1900    -1.2930    -1.1560 h1         1 KQQ       0.055200
     63 H25          5.3230    -0.0500    -2.0130 h1         1 KQQ       0.055200
     64 H26          6.4620     0.2480     0.8050 hc         1 KQQ       0.049700
     65 H27          7.2660     0.8660    -0.6250 hc         1 KQQ       0.049700
     66 H28          6.9400     2.8970     1.1310 hc         1 KQQ       0.035700
     67 H29          5.3680     3.6840     1.1970 hc         1 KQQ       0.035700
     68 H30          5.6200     2.1510     2.0340 hc         1 KQQ       0.035700
     69 H31          5.5240     2.2500    -2.2880 hc         1 KQQ       0.035700
     70 H32          5.1780     3.7130    -1.3760 hc         1 KQQ       0.035700
     71 H33          6.8150     3.0600    -1.3970 hc         1 KQQ       0.035700
@<TRIPOS>BOND
     1     1     2 2   
     2     2     3 1   
     3     2     4 1   
     4     3    40 1   
     5     3    41 1   
     6     4     5 1   
     7     4     8 2   
     8     5     6 1   
     9     6     7 2   
    10     6    42 1   
    11     7     8 1   
    12     7    43 1   
    13     8     9 1   
    14     9    10 1   
    15     9    44 1   
    16    10    11 ar  
    17    10    12 ar  
    18    11    18 ar  
    19    12    13 1   
    20    12    16 ar  
    21    13    14 2   
    22    13    45 1   
    23    14    15 1   
    24    14    46 1   
    25    15    16 1   
    26    15    47 1   
    27    16    17 ar  
    28    17    18 ar  
    29    18    19 1   
    30    19    20 1   
    31    19    48 1   
    32    20    21 ar  
    33    20    24 ar  
    34    21    22 1   
    35    21    27 ar  
    36    22    23 1   
    37    23    49 1   
    38    23    50 1   
    39    23    51 1   
    40    24    25 ar  
    41    24    52 1   
    42    25    26 ar  
    43    25    28 1   
    44    26    27 ar  
    45    26    37 1   
    46    27    53 1   
    47    28    29 1   
    48    28    35 1   
    49    29    30 1   
    50    29    34 2   
    51    30    31 1   
    52    30    54 1   
    53    30    55 1   
    54    31    32 1   
    55    31    33 1   
    56    32    56 1   
    57    32    57 1   
    58    32    58 1   
    59    33    59 1   
    60    33    60 1   
    61    33    61 1   
    62    35    36 1   
    63    35    62 1   
    64    35    63 1   
    65    36    37 1   
    66    36    64 1   
    67    36    65 1   
    68    37    38 1   
    69    37    39 1   
    70    38    66 1   
    71    38    67 1   
    72    38    68 1   
    73    39    69 1   
    74    39    70 1   
    75    39    71 1   
@<TRIPOS>SUBSTRUCTURE
     1 KQQ         1 TEMP              0 ****  ****    0 ROOT
