@<TRIPOS>MOLECULE
KQR
   21    22     1     0     0
SMALL
No Charge or Current Charge


@<TRIPOS>ATOM
      1 C10          3.1130    -1.2110    21.5330 cc         1 KQR      -0.126000
      2 C11          2.3880    -1.8430    20.5590 cd         1 KQR      -0.279000
      3 C04          4.4080     4.0570    17.7770 ca         1 KQR      -0.116600
      4 C05          3.6270     3.0670    17.1390 ca         1 KQR      -0.093500
      5 C06          3.2690     1.8850    17.8110 ca         1 KQR      -0.120500
      6 C07          3.6780     1.6540    19.1420 ca         1 KQR      -0.069000
      7 C08          3.2990     0.4080    19.8500 cd         1 KQR      -0.088000
      8 C09          3.6240     0.0490    21.1370 cc         1 KQR      -0.169000
      9 C13          4.4580     2.6420    19.7800 ca         1 KQR      -0.120500
     10 C14          4.8170     3.8240    19.1090 ca         1 KQR      -0.093500
     11 O01          4.4180     5.4940    15.8970 o          1 KQR      -0.717000
     12 O03          5.4740     6.1650    17.6430 o          1 KQR      -0.717000
     13 S12          2.3160    -0.8650    19.0820 ss         1 KQR       0.175000
     14 H101         3.2890    -1.6230    22.5230 ha         1 KQR       0.117000
     15 H111         1.8940    -2.8060    20.6050 h4         1 KQR       0.134000
     16 H051         3.2930     3.2100    16.1140 ha         1 KQR       0.128500
     17 H061         2.6670     1.1550    17.2780 ha         1 KQR       0.090000
     18 H091         4.2160     0.6530    21.8170 ha         1 KQR       0.132000
     19 H131         4.7960     2.5090    20.8020 ha         1 KQR       0.090000
     20 H141         5.4190     4.5630    19.6340 ha         1 KQR       0.128500
     21 C02          4.7970     5.3360    17.0500 c          1 KQR       0.712600
@<TRIPOS>BOND
     1     1     2 2   
     2     1     8 1   
     3     1    14 1   
     4     2    13 1   
     5     2    15 1   
     6     3     4 ar  
     7     3    10 ar  
     8     3    21 1   
     9     4     5 ar  
    10     4    16 1   
    11     5     6 ar  
    12     5    17 1   
    13     6     7 1   
    14     6     9 ar  
    15     7     8 2   
    16     7    13 1   
    17     8    18 1   
    18     9    10 ar  
    19     9    19 1   
    20    10    20 1   
    21    11    21 1   
    22    12    21 1   
@<TRIPOS>SUBSTRUCTURE
     1 KQR         1 TEMP              0 ****  ****    0 ROOT
