@<TRIPOS>MOLECULE
KQR
   21    22     1     0     0
SMALL
abcg2


@<TRIPOS>ATOM
      1 C10          2.9580    -1.1240    21.5530 cc         1 KQR      -0.126000
      2 C11          2.6440    -1.8810    20.4660 cd         1 KQR      -0.279000
      3 C04          4.4070     4.0220    17.7870 ca         1 KQR      -0.116600
      4 C05          3.4980     3.1210    17.2370 ca         1 KQR      -0.093500
      5 C06          3.1570     1.9510    17.8950 ca         1 KQR      -0.120500
      6 C07          3.7160     1.6390    19.1370 ca         1 KQR      -0.069000
      7 C08          3.3580     0.4170    19.8550 cd         1 KQR      -0.088000
      8 C09          3.3680     0.1880    21.2040 cc         1 KQR      -0.169000
      9 C13          4.6310     2.5400    19.6890 ca         1 KQR      -0.120500
     10 C14          4.9660     3.7070    19.0230 ca         1 KQR      -0.093500
     11 O01          4.1620     5.5510    16.0060 o          1 KQR      -0.717000
     12 O03          5.6700     6.0050    17.5870 o          1 KQR      -0.717000
     13 S12          2.8470    -1.0020    19.0110 ss         1 KQR       0.175000
     14 H101         2.8950    -1.4860    22.5690 ha         1 KQR       0.117000
     15 H111         2.3050    -2.9060    20.4420 h4         1 KQR       0.134000
     16 H051         3.0460     3.3420    16.2790 ha         1 KQR       0.128500
     17 H061         2.4320     1.2840    17.4430 ha         1 KQR       0.090000
     18 H091         3.6390     0.9430    21.9300 ha         1 KQR       0.132000
     19 H131         5.0990     2.3170    20.6400 ha         1 KQR       0.090000
     20 H141         5.6820     4.3830    19.4700 ha         1 KQR       0.128500
     21 C02          4.7800     5.3110    17.0600 c          1 KQR       0.712600
@<TRIPOS>BOND
     1     1     2 2   
     2     1     8 1   
     3     1    14 1   
     4     2    13 1   
     5     2    15 1   
     6     3     4 ar  
     7     3    10 ar  
     8     3    21 1   
     9     4     5 ar  
    10     4    16 1   
    11     5     6 ar  
    12     5    17 1   
    13     6     7 1   
    14     6     9 ar  
    15     7     8 2   
    16     7    13 1   
    17     8    18 1   
    18     9    10 ar  
    19     9    19 1   
    20    10    20 1   
    21    11    21 1   
    22    12    21 1   
@<TRIPOS>SUBSTRUCTURE
     1 KQR         1 TEMP              0 ****  ****    0 ROOT
