@<TRIPOS>MOLECULE
KQS
   42    44     1     0     0
SMALL
abcg2


@<TRIPOS>ATOM
      1 F            5.2490    -0.2970     2.0250 f          1 KQS      -0.178000
      2 C16          5.3060    -0.7230     0.7480 ca         1 KQS       0.175000
      3 C15          6.2670    -1.6630     0.4270 ca         1 KQS      -0.151000
      4 C14          6.3410    -2.1240    -0.8790 ca         1 KQS      -0.084000
      5 C13          5.4580    -1.6370    -1.8330 ca         1 KQS      -0.127000
      6 C12          4.5090    -0.6900    -1.4770 ca         1 KQS      -0.085000
      7 C11          4.4090    -0.2020    -0.1740 ca         1 KQS      -0.118300
      8 C10          3.3570     0.8080     0.2200 c3         1 KQS      -0.002400
      9 C17          3.2620     1.9620    -0.7780 c3         1 KQS      -0.089100
     10 C9           2.0060     0.0940     0.3860 c3         1 KQS      -0.154400
     11 C8           0.9420     1.0310     0.9160 c          1 KQS       0.599100
     12 O1           1.0800     1.6170     1.9820 o          1 KQS      -0.603100
     13 N2          -0.1440     1.1640     0.1370 ns         1 KQS      -0.509900
     14 C7          -1.2750     2.0090     0.4550 c3         1 KQS       0.148300
     15 C3          -2.5730     1.3630     0.0480 ca         1 KQS      -0.111300
     16 C2          -2.9150     0.1110     0.5700 ca         1 KQS      -0.096000
     17 C4          -3.4310     2.0090    -0.8380 ca         1 KQS      -0.099000
     18 C5          -4.6460     1.4490    -1.2290 ca         1 KQS      -0.113000
     19 C6          -4.9740     0.2150    -0.7080 ca         1 KQS       0.010600
     20 C1          -4.1150    -0.4440     0.1810 ca         1 KQS       0.002600
     21 N           -4.7290    -1.6340     0.5070 ns         1 KQS      -0.505600
     22 N1          -6.0660    -0.6080    -0.8790 ns         1 KQS      -0.505600
     23 C           -5.9350    -1.7560    -0.1380 c          1 KQS       0.594000
     24 O           -6.7200    -2.6840    -0.0670 o          1 KQS      -0.560000
     25 H15          6.9440    -2.0270     1.1890 ha         1 KQS       0.133000
     26 H14          7.0880    -2.8600    -1.1450 ha         1 KQS       0.118000
     27 H13          5.5070    -1.9930    -2.8530 ha         1 KQS       0.118000
     28 H12          3.8270    -0.3190    -2.2330 ha         1 KQS       0.114000
     29 H10          3.6270     1.2310     1.1880 hc         1 KQS       0.087700
     30 H171         2.8570     1.6450    -1.7400 hc         1 KQS       0.038700
     31 H172         2.6140     2.7510    -0.3950 hc         1 KQS       0.038700
     32 H173         4.2420     2.4040    -0.9560 hc         1 KQS       0.038700
     33 H91C         1.7070    -0.3540    -0.5660 hc         1 KQS       0.061700
     34 H92C         2.1100    -0.7250     1.1030 hc         1 KQS       0.061700
     35 H2          -0.1580     0.6900    -0.7510 hn         1 KQS       0.313500
     36 H71C        -1.2620     2.1950     1.5290 h1         1 KQS       0.063700
     37 H72C        -1.1760     2.9820    -0.0350 h1         1 KQS       0.063700
     38 HA          -2.2570    -0.4060     1.2570 ha         1 KQS       0.130000
     39 H4          -3.1490     2.9750    -1.2370 ha         1 KQS       0.118000
     40 H5          -5.3000     1.9640    -1.9200 ha         1 KQS       0.125000
     41 H1          -6.8660    -0.4180    -1.4610 hn         1 KQS       0.469000
     42 H           -4.3610    -2.3400     1.1240 hn         1 KQS       0.470000
@<TRIPOS>BOND
     1     1     2 1   
     2     2     3 ar  
     3     2     7 ar  
     4     3     4 ar  
     5     3    25 1   
     6     4     5 ar  
     7     4    26 1   
     8     5     6 ar  
     9     5    27 1   
    10     6     7 ar  
    11     6    28 1   
    12     7     8 1   
    13     8     9 1   
    14     8    10 1   
    15     8    29 1   
    16     9    30 1   
    17     9    31 1   
    18     9    32 1   
    19    10    11 1   
    20    10    33 1   
    21    10    34 1   
    22    11    12 2   
    23    11    13 1   
    24    13    14 1   
    25    13    35 1   
    26    14    15 1   
    27    14    36 1   
    28    14    37 1   
    29    15    16 ar  
    30    15    17 ar  
    31    16    20 ar  
    32    16    38 1   
    33    17    18 ar  
    34    17    39 1   
    35    18    19 ar  
    36    18    40 1   
    37    19    20 ar  
    38    19    22 1   
    39    20    21 1   
    40    21    23 1   
    41    21    42 1   
    42    22    23 1   
    43    22    41 1   
    44    23    24 2   
@<TRIPOS>SUBSTRUCTURE
     1 KQS         1 TEMP              0 ****  ****    0 ROOT
