@<TRIPOS>MOLECULE
KQS
   42    44     1     0     0
SMALL
No Charge or Current Charge


@<TRIPOS>ATOM
      1 F            5.9910     1.2750     0.8060 f          1 KQS      -0.178000
      2 C16          5.7360     0.2040     0.0220 ca         1 KQS       0.175000
      3 C15          6.8110    -0.6080    -0.3760 ca         1 KQS      -0.151000
      4 C14          6.5850    -1.7310    -1.1880 ca         1 KQS      -0.084000
      5 C13          5.2790    -2.0390    -1.6000 ca         1 KQS      -0.127000
      6 C12          4.2010    -1.2290    -1.2030 ca         1 KQS      -0.085000
      7 C11          4.4140    -0.0950    -0.3880 ca         1 KQS      -0.118300
      8 C10          3.2250     0.7790     0.0390 c3         1 KQS      -0.002400
      9 C17          2.5090     1.3850    -1.1930 c3         1 KQS      -0.089100
     10 C9           2.2580    -0.0150     0.9570 c3         1 KQS      -0.154400
     11 C8           1.1600     0.8720     1.5510 c          1 KQS       0.599100
     12 O1           1.3760     1.6850     2.4390 o          1 KQS      -0.603100
     13 N2          -0.0980     0.6680     1.0380 ns         1 KQS      -0.509900
     14 C7          -1.2860     1.4070     1.4530 c3         1 KQS       0.148300
     15 C3          -2.4770     1.0560     0.5750 ca         1 KQS      -0.111300
     16 C2          -3.3940     0.0600     0.9940 ca         1 KQS      -0.096000
     17 C4          -2.6590     1.7220    -0.6700 ca         1 KQS      -0.099000
     18 C5          -3.7540     1.4120    -1.5110 ca         1 KQS      -0.113000
     19 C6          -4.6370     0.4280    -1.0620 ca         1 KQS       0.010600
     20 C1          -4.4640    -0.2220     0.1410 ca         1 KQS       0.002600
     21 N           -5.5350    -1.1260     0.2340 ns         1 KQS      -0.505600
     22 N1          -5.8010    -0.1230    -1.6210 ns         1 KQS      -0.505600
     23 C           -6.3800    -1.0870    -0.8410 c          1 KQS       0.594000
     24 O           -7.3840    -1.7400    -1.0500 o          1 KQS      -0.560000
     25 H15          7.8190    -0.3640    -0.0520 ha         1 KQS       0.133000
     26 H14          7.4180    -2.3600    -1.4960 ha         1 KQS       0.118000
     27 H13          5.1000    -2.9090    -2.2290 ha         1 KQS       0.118000
     28 H12          3.1970    -1.4870    -1.5330 ha         1 KQS       0.114000
     29 H10          3.5910     1.6310     0.6270 hc         1 KQS       0.087700
     30 H171         2.0180     0.6080    -1.7910 hc         1 KQS       0.038700
     31 H172         1.7470     2.1120    -0.8870 hc         1 KQS       0.038700
     32 H173         3.2290     1.9060    -1.8350 hc         1 KQS       0.038700
     33 H91C         1.8070    -0.8310     0.3790 hc         1 KQS       0.061700
     34 H92C         2.8420    -0.4340     1.7840 hc         1 KQS       0.061700
     35 H2          -0.1950    -0.0290     0.3110 hn         1 KQS       0.313500
     36 H71C        -1.5080     1.1690     2.5020 h1         1 KQS       0.063700
     37 H72C        -1.0820     2.4850     1.3850 h1         1 KQS       0.063700
     38 HA          -3.2740    -0.4660     1.9380 ha         1 KQS       0.130000
     39 H4          -1.9470     2.4820    -0.9850 ha         1 KQS       0.118000
     40 H5          -3.9000     1.9160    -2.4630 ha         1 KQS       0.125000
     41 H1          -6.1930     0.1540    -2.5150 hn         1 KQS       0.469000
     42 H           -5.6870    -1.7550     1.0160 hn         1 KQS       0.470000
@<TRIPOS>BOND
     1     1     2 1   
     2     2     3 ar  
     3     2     7 ar  
     4     3     4 ar  
     5     3    25 1   
     6     4     5 ar  
     7     4    26 1   
     8     5     6 ar  
     9     5    27 1   
    10     6     7 ar  
    11     6    28 1   
    12     7     8 1   
    13     8     9 1   
    14     8    10 1   
    15     8    29 1   
    16     9    30 1   
    17     9    31 1   
    18     9    32 1   
    19    10    11 1   
    20    10    33 1   
    21    10    34 1   
    22    11    12 2   
    23    11    13 1   
    24    13    14 1   
    25    13    35 1   
    26    14    15 1   
    27    14    36 1   
    28    14    37 1   
    29    15    16 ar  
    30    15    17 ar  
    31    16    20 ar  
    32    16    38 1   
    33    17    18 ar  
    34    17    39 1   
    35    18    19 ar  
    36    18    40 1   
    37    19    20 ar  
    38    19    22 1   
    39    20    21 1   
    40    21    23 1   
    41    21    42 1   
    42    22    23 1   
    43    22    41 1   
    44    23    24 2   
@<TRIPOS>SUBSTRUCTURE
     1 KQS         1 TEMP              0 ****  ****    0 ROOT
