@<TRIPOS>MOLECULE
KQV
  101   106     1     0     0
SMALL
No Charge or Current Charge


@<TRIPOS>ATOM
      1 C1          -4.7460    -2.6320    -0.9050 ca         1 KQV      -0.075300
      2 C2          -3.7620    -1.9680    -1.6820 ca         1 KQV      -0.043000
      3 C3          -3.4430    -0.6460    -1.3460 ca         1 KQV      -0.131800
      4 C4          -4.0420     0.0150    -0.3150 ca         1 KQV      -0.033200
      5 C5          -2.5450     1.5010    -1.2310 cc         1 KQV      -0.226300
      6 C6          -1.6970     2.6720    -1.5690 c          1 KQV       0.656300
      7 C7          -1.1970     5.0510    -0.8820 c3         1 KQV       0.028700
      8 C8           0.2570     4.9300    -0.3550 c          1 KQV       0.574000
      9 O1          -7.0670    -5.6580    -2.4740 o          1 KQV      -0.899833
     10 N1          -1.9270     3.7650    -0.7690 ns         1 KQV      -0.516900
     11 N2           0.5150     4.0810     0.7480 n          1 KQV      -0.396800
     12 N           -3.5280     1.2970    -0.2250 na         1 KQV      -0.231700
     13 C           -5.1460    -4.0830    -1.2100 c3         1 KQV      -0.045700
     14 O           -6.6040    -3.5040    -3.5140 o          1 KQV      -0.899833
     15 O8          -0.8710     2.6840    -2.4710 o          1 KQV      -0.636100
     16 C37         -2.5080     0.2890    -1.9150 cd         1 KQV      -0.124200
     17 C38         -5.0220    -0.5990     0.4700 ca         1 KQV      -0.200000
     18 C39         -5.3730    -1.9340     0.1650 ca         1 KQV       0.009000
     19 F1          -5.3020    -4.7830    -0.0550 f          1 KQV      -0.158500
     20 P           -6.7560    -4.2200    -2.2100 p5         1 KQV       1.262500
     21 O2          -7.8810    -3.6090    -1.4380 o          1 KQV      -0.899833
     22 F           -4.1650    -4.7310    -1.8920 f          1 KQV      -0.158500
     23 C36         -1.9410     6.2650    -0.2690 c3         1 KQV       0.082000
     24 N6          -2.0030     6.3340     1.2200 n          1 KQV      -0.412800
     25 C34         -1.9440     7.5970     1.8660 c          1 KQV       0.607100
     26 O6          -1.8620     8.6350     1.2220 o          1 KQV      -0.604100
     27 C35         -1.8970     7.6520     3.3970 c3         1 KQV      -0.177100
     28 C33         -2.5170     5.1400     1.9350 c3         1 KQV       0.102000
     29 C32         -1.4310     4.1610     2.4460 c3         1 KQV      -0.110400
     30 C31          0.0500     4.4840     2.1080 c5         1 KQV       0.148700
     31 O7           1.1800     5.4360    -0.9830 o          1 KQV      -0.561000
     32 C30          0.9970     3.6650     3.0310 c5         1 KQV      -0.099400
     33 C29          2.3220     3.7150     2.2460 c5         1 KQV      -0.082400
     34 C9           1.8320     3.3690     0.8150 c5         1 KQV       0.026700
     35 C10          1.7030     1.8200     0.6520 c          1 KQV       0.593100
     36 O5           0.7180     1.1240     0.8620 o          1 KQV      -0.587100
     37 N3           2.8920     1.3150     0.1670 ns         1 KQV      -0.492900
     38 C11          3.1240    -0.0920    -0.2330 c3         1 KQV       0.030700
     39 C12          2.8320    -0.2880    -1.7480 c3         1 KQV      -0.069400
     40 C13          1.3310    -0.2110    -2.1320 c3         1 KQV      -0.171400
     41 C14          1.1140    -0.2880    -3.6440 c          1 KQV       0.610100
     42 O3           1.4100    -1.2620    -4.3160 o          1 KQV      -0.656100
     43 N4           0.5240     0.7780    -4.2180 nt         1 KQV      -0.604000
     44 C15          4.5810    -0.5100     0.1210 c          1 KQV       0.590100
     45 O4           5.4600     0.2970     0.3980 o          1 KQV      -0.615100
     46 N5           4.8160    -1.8660     0.1090 ns         1 KQV      -0.500900
     47 C16          6.1020    -2.4870     0.4200 c3         1 KQV       0.210300
     48 C23          6.3770    -2.5610     1.9250 ca         1 KQV      -0.094300
     49 C28          7.7060    -2.4700     2.3880 ca         1 KQV      -0.094000
     50 C27          7.9900    -2.5400     3.7630 ca         1 KQV      -0.111500
     51 C26          6.9470    -2.7030     4.6890 ca         1 KQV      -0.108000
     52 C25          5.6200    -2.7980     4.2390 ca         1 KQV      -0.111500
     53 C24          5.3350    -2.7290     2.8640 ca         1 KQV      -0.094000
     54 C17          6.2020    -3.8600    -0.2400 ca         1 KQV      -0.094300
     55 C22          7.1460    -4.0850    -1.2630 ca         1 KQV      -0.094000
     56 C21          7.2430    -5.3450    -1.8780 ca         1 KQV      -0.111500
     57 C20          6.3970    -6.3920    -1.4760 ca         1 KQV      -0.108000
     58 C19          5.4530    -6.1760    -0.4580 ca         1 KQV      -0.111500
     59 C18          5.3550    -4.9160     0.1570 ca         1 KQV      -0.094000
     60 H1          -3.2650    -2.4590    -2.5150 ha         1 KQV       0.131000
     61 H2          -1.0980     5.2620    -1.9550 h1         1 KQV       0.098700
     62 H3          -2.6290     3.6580    -0.0540 hn         1 KQV       0.316500
     63 H4          -3.8230     1.9760     0.4670 hn         1 KQV       0.320000
     64 H6          -1.8670     0.0830    -2.7670 ha         1 KQV       0.197000
     65 H7          -5.5010    -0.0680     1.2880 ha         1 KQV       0.087000
     66 H8          -6.1370    -2.4300     0.7610 ha         1 KQV       0.158000
     67 H10         -1.4360     7.1630    -0.6490 h1         1 KQV       0.071700
     68 H11         -2.9650     6.2890    -0.6630 h1         1 KQV       0.071700
     69 H12         -1.2630     6.8490     3.7870 hc         1 KQV       0.058367
     70 H13         -1.5860     8.6360     3.7660 hc         1 KQV       0.058367
     71 H14         -2.8890     7.4040     3.7890 hc         1 KQV       0.058367
     72 H15         -3.1370     5.4510     2.7840 h1         1 KQV       0.049200
     73 H16         -3.2100     4.6030     1.2770 h1         1 KQV       0.049200
     74 H17         -1.5350     4.1300     3.5380 hc         1 KQV       0.067700
     75 H18         -1.6730     3.1460     2.1070 hc         1 KQV       0.067700
     76 H19          0.2340     5.5560     2.2660 h1         1 KQV       0.036700
     77 H20          1.0860     4.1090     4.0290 hc         1 KQV       0.063200
     78 H21          0.6480     2.6350     3.1680 hc         1 KQV       0.063200
     79 H22          2.7650     4.7180     2.2810 hc         1 KQV       0.054200
     80 H23          3.0720     3.0130     2.6280 hc         1 KQV       0.054200
     81 H24          2.5460     3.7300     0.0640 h1         1 KQV       0.082700
     82 H25          3.6640     1.9660     0.0690 hn         1 KQV       0.331500
     83 H26          2.4610    -0.7460     0.3490 h1         1 KQV       0.088700
     84 H27          3.3940     0.4620    -2.3190 hc         1 KQV       0.058700
     85 H28          3.2140    -1.2660    -2.0670 hc         1 KQV       0.058700
     86 H29          0.8040    -1.0510    -1.6670 hc         1 KQV       0.084200
     87 H30          0.8970     0.7220    -1.7600 hc         1 KQV       0.084200
     88 H31          0.2130     1.5550    -3.6440 hn         1 KQV       0.330500
     89 H32          0.3430     0.7680    -5.2090 hn         1 KQV       0.330500
     90 H33          4.0450    -2.4700    -0.1450 hn         1 KQV       0.331500
     91 H34          6.8790    -1.8480    -0.0230 h1         1 KQV       0.076700
     92 H35          8.5220    -2.3470     1.6790 ha         1 KQV       0.115500
     93 H36          9.0180    -2.4690     4.1090 ha         1 KQV       0.111000
     94 H37          7.1670    -2.7580     5.7530 ha         1 KQV       0.108500
     95 H38          4.8120    -2.9270     4.9560 ha         1 KQV       0.111000
     96 H39          4.3010    -2.8080     2.5360 ha         1 KQV       0.115500
     97 H40          7.8070    -3.2830    -1.5850 ha         1 KQV       0.115500
     98 H41          7.9740    -5.5100    -2.6660 ha         1 KQV       0.111000
     99 H42          6.4720    -7.3670    -1.9510 ha         1 KQV       0.108500
    100 H43          4.7970    -6.9860    -0.1450 ha         1 KQV       0.111000
    101 H44          4.6210    -4.7650     0.9440 ha         1 KQV       0.115500
@<TRIPOS>BOND
     1     1     2 ar  
     2     1    13 1   
     3     1    18 ar  
     4     2     3 ar  
     5     2    60 1   
     6     3     4 ar  
     7     3    16 1   
     8     4    12 1   
     9     4    17 ar  
    10     5     6 1   
    11     5    12 1   
    12     5    16 2   
    13     6    10 1   
    14     6    15 2   
    15     7     8 1   
    16     7    10 1   
    17     7    23 1   
    18     7    61 1   
    19     8    11 1   
    20     8    31 2   
    21     9    20 1   
    22    10    62 1   
    23    11    30 1   
    24    11    34 1   
    25    12    63 1   
    26    13    19 1   
    27    13    20 1   
    28    13    22 1   
    29    14    20 1   
    30    16    64 1   
    31    17    18 ar  
    32    17    65 1   
    33    18    66 1   
    34    20    21 1   
    35    23    24 1   
    36    23    67 1   
    37    23    68 1   
    38    24    25 1   
    39    24    28 1   
    40    25    26 2   
    41    25    27 1   
    42    27    69 1   
    43    27    70 1   
    44    27    71 1   
    45    28    29 1   
    46    28    72 1   
    47    28    73 1   
    48    29    30 1   
    49    29    74 1   
    50    29    75 1   
    51    30    32 1   
    52    30    76 1   
    53    32    33 1   
    54    32    77 1   
    55    32    78 1   
    56    33    34 1   
    57    33    79 1   
    58    33    80 1   
    59    34    35 1   
    60    34    81 1   
    61    35    36 2   
    62    35    37 1   
    63    37    38 1   
    64    37    82 1   
    65    38    39 1   
    66    38    44 1   
    67    38    83 1   
    68    39    40 1   
    69    39    84 1   
    70    39    85 1   
    71    40    41 1   
    72    40    86 1   
    73    40    87 1   
    74    41    42 2   
    75    41    43 1   
    76    43    88 1   
    77    43    89 1   
    78    44    45 2   
    79    44    46 1   
    80    46    47 1   
    81    46    90 1   
    82    47    48 1   
    83    47    54 1   
    84    47    91 1   
    85    48    49 ar  
    86    48    53 ar  
    87    49    50 ar  
    88    49    92 1   
    89    50    51 ar  
    90    50    93 1   
    91    51    52 ar  
    92    51    94 1   
    93    52    53 ar  
    94    52    95 1   
    95    53    96 1   
    96    54    55 ar  
    97    54    59 ar  
    98    55    56 ar  
    99    55    97 1   
   100    56    57 ar  
   101    56    98 1   
   102    57    58 ar  
   103    57    99 1   
   104    58    59 ar  
   105    58   100 1   
   106    59   101 1   
@<TRIPOS>SUBSTRUCTURE
     1 KQV         1 TEMP              0 ****  ****    0 ROOT
