@<TRIPOS>MOLECULE
KQV
  101   106     1     0     0
SMALL
abcg2


@<TRIPOS>ATOM
      1 C1          -5.1090    -2.6410    -1.2980 ca         1 KQV      -0.075300
      2 C2          -4.3940    -1.8800    -2.1980 ca         1 KQV      -0.043000
      3 C3          -3.7690    -0.7050    -1.7560 ca         1 KQV      -0.131800
      4 C4          -3.9000    -0.3130    -0.4080 ca         1 KQV      -0.033200
      5 C5          -2.6240     1.1990    -1.4360 cc         1 KQV      -0.226300
      6 C6          -1.7900     2.3940    -1.6230 c          1 KQV       0.656300
      7 C7          -1.1020     4.5660    -0.7400 c3         1 KQV       0.028700
      8 C8           0.3240     4.2540    -0.2510 c          1 KQV       0.574000
      9 O1          -8.0970    -5.1810    -2.3030 o          1 KQV      -0.899833
     10 N1          -1.9220     3.3700    -0.6950 ns         1 KQV      -0.516900
     11 N2           0.6250     3.9060     1.0200 n          1 KQV      -0.396800
     12 N           -3.2160     0.8530    -0.2440 na         1 KQV      -0.231700
     13 C           -5.8040    -3.9010    -1.7110 c3         1 KQV      -0.045700
     14 O           -7.8480    -2.6990    -2.9390 o          1 KQV      -0.899833
     15 O8          -1.0180     2.4830    -2.5670 o          1 KQV      -0.636100
     16 C37         -2.9460     0.2690    -2.3880 cd         1 KQV      -0.124200
     17 C38         -4.6250    -1.0740     0.5100 ca         1 KQV      -0.200000
     18 C39         -5.2230    -2.2240     0.0480 ca         1 KQV       0.009000
     19 F1          -5.4700    -4.8920    -0.7990 f          1 KQV      -0.158500
     20 P           -7.6800    -3.7760    -1.8730 p5         1 KQV       1.262500
     21 O2          -8.1260    -3.3800    -0.4680 o          1 KQV      -0.899833
     22 F           -5.2620    -4.3400    -2.9030 f          1 KQV      -0.158500
     23 C36         -1.8060     5.8050    -0.1920 c3         1 KQV       0.082000
     24 N6          -1.8410     5.9840     1.2390 n          1 KQV      -0.412800
     25 C34         -1.3600     7.1370     1.7810 c          1 KQV       0.607100
     26 O6          -0.8380     8.0050     1.0970 o          1 KQV      -0.604100
     27 C35         -1.5150     7.3280     3.2730 c3         1 KQV      -0.177100
     28 C33         -2.4810     4.9430     2.0150 c3         1 KQV       0.102000
     29 C32         -1.5710     3.7430     2.3350 c3         1 KQV      -0.110400
     30 C31         -0.0820     4.0370     2.3080 c5         1 KQV       0.148700
     31 O7           1.1990     4.2280    -1.1080 o          1 KQV      -0.561000
     32 C30          0.6840     3.0760     3.2120 c5         1 KQV      -0.099400
     33 C29          2.1110     3.1920     2.7150 c5         1 KQV      -0.082400
     34 C9           1.9390     3.2940     1.1980 c5         1 KQV       0.026700
     35 C10          1.9190     1.9000     0.5740 c          1 KQV       0.593100
     36 O5           0.9200     1.2000     0.6180 o          1 KQV      -0.587100
     37 N3           3.0910     1.5020     0.0530 ns         1 KQV      -0.492900
     38 C11          3.3270     0.1750    -0.4580 c3         1 KQV       0.030700
     39 C12          3.2400     0.0940    -1.9880 c3         1 KQV      -0.069400
     40 C13          1.8700     0.5040    -2.4970 c3         1 KQV      -0.171400
     41 C14          1.6780     0.2680    -3.9820 c          1 KQV       0.610100
     42 O3           2.4840    -0.3510    -4.6650 o          1 KQV      -0.656100
     43 N4           0.5400     0.7800    -4.4740 nt         1 KQV      -0.604000
     44 C15          4.7080    -0.2840    -0.0060 c          1 KQV       0.590100
     45 O4           5.6240     0.5020     0.1770 o          1 KQV      -0.615100
     46 N5           4.8440    -1.6120     0.1220 ns         1 KQV      -0.500900
     47 C16          6.1110    -2.2340     0.4490 c3         1 KQV       0.210300
     48 C23          6.4770    -2.1070     1.9150 ca         1 KQV      -0.094300
     49 C28          7.8110    -2.2620     2.2850 ca         1 KQV      -0.094000
     50 C27          8.1890    -2.1940     3.6170 ca         1 KQV      -0.111500
     51 C26          7.2340    -1.9700     4.6020 ca         1 KQV      -0.108000
     52 C25          5.9040    -1.8130     4.2400 ca         1 KQV      -0.111500
     53 C24          5.5270    -1.8800     2.9030 ca         1 KQV      -0.094000
     54 C17          6.0740    -3.6840     0.0130 ca         1 KQV      -0.094300
     55 C22          6.7970    -4.0950    -1.1020 ca         1 KQV      -0.094000
     56 C21          6.7500    -5.4170    -1.5260 ca         1 KQV      -0.111500
     57 C20          5.9720    -6.3390    -0.8410 ca         1 KQV      -0.108000
     58 C19          5.2470    -5.9350     0.2730 ca         1 KQV      -0.111500
     59 C18          5.3020    -4.6170     0.7010 ca         1 KQV      -0.094000
     60 H1          -4.2980    -2.1760    -3.2340 ha         1 KQV       0.131000
     61 H2          -0.9490     4.8020    -1.7940 h1         1 KQV       0.098700
     62 H3          -2.7640     3.3890    -0.1440 hn         1 KQV       0.316500
     63 H4          -3.0340     1.2750     0.6520 hn         1 KQV       0.320000
     64 H6          -2.6430     0.2930    -3.4230 ha         1 KQV       0.197000
     65 H7          -4.7220    -0.7710     1.5440 ha         1 KQV       0.087000
     66 H8          -5.8090    -2.8190     0.7320 ha         1 KQV       0.158000
     67 H10         -1.3120     6.6700    -0.6250 h1         1 KQV       0.071700
     68 H11         -2.8290     5.7940    -0.5840 h1         1 KQV       0.071700
     69 H12         -1.1060     6.5040     3.8570 hc         1 KQV       0.058367
     70 H13         -1.0000     8.2390     3.5620 hc         1 KQV       0.058367
     71 H14         -2.5660     7.4300     3.5470 hc         1 KQV       0.058367
     72 H15         -2.8430     5.3650     2.9480 h1         1 KQV       0.049200
     73 H16         -3.3830     4.6220     1.4880 h1         1 KQV       0.049200
     74 H17         -1.8140     3.4130     3.3470 hc         1 KQV       0.067700
     75 H18         -1.7640     2.8810     1.6980 hc         1 KQV       0.067700
     76 H19          0.1010     5.0490     2.6810 h1         1 KQV       0.036700
     77 H20          0.5650     3.3530     4.2590 hc         1 KQV       0.063200
     78 H21          0.3060     2.0610     3.0850 hc         1 KQV       0.063200
     79 H22          2.5710     4.1100     3.0870 hc         1 KQV       0.054200
     80 H23          2.7520     2.3610     3.0100 hc         1 KQV       0.054200
     81 H24          2.7290     3.9020     0.7550 h1         1 KQV       0.082700
     82 H25          3.8590     2.1540     0.0180 hn         1 KQV       0.331500
     83 H26          2.5650    -0.4820    -0.0330 h1         1 KQV       0.088700
     84 H27          4.0180     0.7240    -2.4290 hc         1 KQV       0.058700
     85 H28          3.4570    -0.9330    -2.2900 hc         1 KQV       0.058700
     86 H29          1.0920    -0.0510    -1.9650 hc         1 KQV       0.084200
     87 H30          1.6720     1.5560    -2.2790 hc         1 KQV       0.084200
     88 H31         -0.0980     1.3030    -3.8880 hn         1 KQV       0.330500
     89 H32          0.3110     0.6640    -5.4470 hn         1 KQV       0.330500
     90 H33          4.0410    -2.2050    -0.0210 hn         1 KQV       0.331500
     91 H34          6.8880    -1.7290    -0.1320 h1         1 KQV       0.076700
     92 H35          8.5620    -2.4340     1.5220 ha         1 KQV       0.115500
     93 H36          9.2310    -2.3120     3.8870 ha         1 KQV       0.111000
     94 H37          7.5250    -1.9160     5.6430 ha         1 KQV       0.108500
     95 H38          5.1520    -1.6350     4.9990 ha         1 KQV       0.111000
     96 H39          4.4860    -1.7470     2.6370 ha         1 KQV       0.115500
     97 H40          7.4050    -3.3780    -1.6400 ha         1 KQV       0.115500
     98 H41          7.3200    -5.7230    -2.3930 ha         1 KQV       0.111000
     99 H42          5.9340    -7.3700    -1.1710 ha         1 KQV       0.108500
    100 H43          4.6380    -6.6490     0.8130 ha         1 KQV       0.111000
    101 H44          4.7450    -4.3210     1.5820 ha         1 KQV       0.115500
@<TRIPOS>BOND
     1     1     2 ar  
     2     1    13 1   
     3     1    18 ar  
     4     2     3 ar  
     5     2    60 1   
     6     3     4 ar  
     7     3    16 1   
     8     4    12 1   
     9     4    17 ar  
    10     5     6 1   
    11     5    12 1   
    12     5    16 2   
    13     6    10 1   
    14     6    15 2   
    15     7     8 1   
    16     7    10 1   
    17     7    23 1   
    18     7    61 1   
    19     8    11 1   
    20     8    31 2   
    21     9    20 1   
    22    10    62 1   
    23    11    30 1   
    24    11    34 1   
    25    12    63 1   
    26    13    19 1   
    27    13    20 1   
    28    13    22 1   
    29    14    20 1   
    30    16    64 1   
    31    17    18 ar  
    32    17    65 1   
    33    18    66 1   
    34    20    21 1   
    35    23    24 1   
    36    23    67 1   
    37    23    68 1   
    38    24    25 1   
    39    24    28 1   
    40    25    26 2   
    41    25    27 1   
    42    27    69 1   
    43    27    70 1   
    44    27    71 1   
    45    28    29 1   
    46    28    72 1   
    47    28    73 1   
    48    29    30 1   
    49    29    74 1   
    50    29    75 1   
    51    30    32 1   
    52    30    76 1   
    53    32    33 1   
    54    32    77 1   
    55    32    78 1   
    56    33    34 1   
    57    33    79 1   
    58    33    80 1   
    59    34    35 1   
    60    34    81 1   
    61    35    36 2   
    62    35    37 1   
    63    37    38 1   
    64    37    82 1   
    65    38    39 1   
    66    38    44 1   
    67    38    83 1   
    68    39    40 1   
    69    39    84 1   
    70    39    85 1   
    71    40    41 1   
    72    40    86 1   
    73    40    87 1   
    74    41    42 2   
    75    41    43 1   
    76    43    88 1   
    77    43    89 1   
    78    44    45 2   
    79    44    46 1   
    80    46    47 1   
    81    46    90 1   
    82    47    48 1   
    83    47    54 1   
    84    47    91 1   
    85    48    49 ar  
    86    48    53 ar  
    87    49    50 ar  
    88    49    92 1   
    89    50    51 ar  
    90    50    93 1   
    91    51    52 ar  
    92    51    94 1   
    93    52    53 ar  
    94    52    95 1   
    95    53    96 1   
    96    54    55 ar  
    97    54    59 ar  
    98    55    56 ar  
    99    55    97 1   
   100    56    57 ar  
   101    56    98 1   
   102    57    58 ar  
   103    57    99 1   
   104    58    59 ar  
   105    58   100 1   
   106    59   101 1   
@<TRIPOS>SUBSTRUCTURE
     1 KQV         1 TEMP              0 ****  ****    0 ROOT
