@<TRIPOS>MOLECULE
KQW
   34    37     1     0     0
SMALL
No Charge or Current Charge


@<TRIPOS>ATOM
      1 C1          15.9220   -57.1160    37.0500 cx         1 KQW       0.178500
      2 C2          16.1070   -58.5910    37.3220 cx         1 KQW      -0.129900
      3 C3          17.3090   -57.6850    37.2480 cx         1 KQW      -0.129900
      4 C4          15.9180   -55.0480    38.5260 ca         1 KQW       0.385900
      5 C5          16.0170   -53.3340    40.0500 ca         1 KQW       0.148900
      6 C6          17.1100   -52.7910    39.3610 ca         1 KQW      -0.276000
      7 C7          17.5670   -53.4570    38.2090 ca         1 KQW       0.269800
      8 C8          18.7180   -52.9270    37.4640 cc         1 KQW      -0.357400
      9 C9          19.5310   -51.8070    37.7800 cc         1 KQW       0.389500
     10 C11         18.8830   -54.5180    35.4660 cd         1 KQW      -0.027000
     11 C12         19.6990   -54.6610    34.3700 cc         1 KQW      -0.161000
     12 C13         20.7900   -53.7440    34.1620 cc         1 KQW       0.291900
     13 N           15.2980   -56.2490    38.0750 nh         1 KQW      -0.758300
     14 C           13.9310   -56.5530    38.5720 c3         1 KQW       0.230100
     15 C10         19.2530   -53.4170    36.2970 cd         1 KQW      -0.086000
     16 N1          15.4170   -54.4630    39.6360 nb         1 KQW      -0.242000
     17 N2          20.5160   -51.5610    36.9270 nd         1 KQW      -0.522100
     18 N3          20.3230   -52.5710    36.0200 na         1 KQW       0.414200
     19 N4          21.1490   -52.7050    34.9230 nd         1 KQW      -0.424800
     20 N5          16.9610   -54.5880    37.8040 nb         1 KQW      -0.262000
     21 H3          15.6430   -56.8490    36.0290 h1         1 KQW       0.077700
     22 H4          15.9360   -59.2780    36.4980 hc         1 KQW       0.077450
     23 H5          15.8200   -58.9690    38.3000 hc         1 KQW       0.077450
     24 H7          17.8250   -57.4540    38.1760 hc         1 KQW       0.077450
     25 H6          17.9500   -57.7610    36.3750 hc         1 KQW       0.077450
     26 H8          15.6170   -52.8610    40.9460 h4         1 KQW       0.020100
     27 H9          17.5760   -51.8790    39.7190 ha         1 KQW       0.132000
     28 H10         19.4310   -51.1500    38.6340 h4         1 KQW       0.053800
     29 H11         18.0510   -55.1860    35.6480 ha         1 KQW       0.164000
     30 H12         19.5390   -55.4560    33.6500 ha         1 KQW       0.135000
     31 H13         21.4300   -53.8600    33.2980 h4         1 KQW       0.042100
     32 H1          13.9560   -56.8280    39.6340 h1         1 KQW       0.044033
     33 H           13.2670   -55.6880    38.4410 h1         1 KQW       0.044033
     34 H2          13.4950   -57.3930    38.0140 h1         1 KQW       0.044033
@<TRIPOS>BOND
     1     1     2 1   
     2     1     3 1   
     3     1    13 1   
     4     1    21 1   
     5     2     3 1   
     6     2    22 1   
     7     2    23 1   
     8     3    24 1   
     9     3    25 1   
    10     4    13 1   
    11     4    16 ar  
    12     4    20 ar  
    13     5     6 ar  
    14     5    16 ar  
    15     5    26 1   
    16     6     7 ar  
    17     6    27 1   
    18     7     8 1   
    19     7    20 ar  
    20     8     9 1   
    21     8    15 2   
    22     9    17 2   
    23     9    28 1   
    24    10    11 2   
    25    10    15 1   
    26    10    29 1   
    27    11    12 1   
    28    11    30 1   
    29    12    19 2   
    30    12    31 1   
    31    13    14 1   
    32    14    32 1   
    33    14    33 1   
    34    14    34 1   
    35    15    18 1   
    36    17    18 1   
    37    18    19 1   
@<TRIPOS>SUBSTRUCTURE
     1 KQW         1 TEMP              0 ****  ****    0 ROOT
