@<TRIPOS>MOLECULE
KQW
   34    37     1     0     0
SMALL
abcg2


@<TRIPOS>ATOM
      1 C1          15.9120   -56.9360    37.0450 cx         1 KQW       0.178500
      2 C2          15.9920   -58.4340    37.0710 cx         1 KQW      -0.129900
      3 C3          17.2500   -57.6110    37.0940 cx         1 KQW      -0.129900
      4 C4          15.9520   -55.0670    38.5940 ca         1 KQW       0.385900
      5 C5          15.9410   -53.2950    40.0190 ca         1 KQW       0.148900
      6 C6          17.0260   -52.7300    39.3750 ca         1 KQW      -0.276000
      7 C7          17.5330   -53.4330    38.2740 ca         1 KQW       0.269800
      8 C8          18.6540   -52.9310    37.4960 cc         1 KQW      -0.357400
      9 C9          19.4160   -51.7690    37.7130 cc         1 KQW       0.389500
     10 C11         19.0070   -54.6320    35.5340 cd         1 KQW      -0.027000
     11 C12         19.8280   -54.8100    34.4570 cc         1 KQW      -0.161000
     12 C13         20.8490   -53.8620    34.2030 cc         1 KQW       0.291900
     13 N           15.4160   -56.2640    38.2150 nh         1 KQW      -0.758300
     14 C           14.1180   -56.6570    38.7540 c3         1 KQW       0.230100
     15 C10         19.2200   -53.5030    36.3450 cd         1 KQW      -0.086000
     16 N1          15.3860   -54.4490    39.6510 nb         1 KQW      -0.242000
     17 N2          20.3790   -51.5980    36.8050 nd         1 KQW      -0.522100
     18 N3          20.2540   -52.6510    35.9800 na         1 KQW       0.414200
     19 N4          21.0700   -52.7990    34.9370 nd         1 KQW      -0.424800
     20 N5          16.9930   -54.5950    37.8880 nb         1 KQW      -0.262000
     21 H3          15.6350   -56.4760    36.1000 h1         1 KQW       0.077700
     22 H4          15.7320   -58.9650    36.1660 hc         1 KQW       0.077450
     23 H5          15.7080   -58.9330    37.9880 hc         1 KQW       0.077450
     24 H7          17.7900   -57.5480    38.0290 hc         1 KQW       0.077450
     25 H6          17.8660   -57.5760    36.2060 hc         1 KQW       0.077450
     26 H8          15.4900   -52.7960    40.8710 h4         1 KQW       0.020100
     27 H9          17.4450   -51.7910    39.7020 ha         1 KQW       0.132000
     28 H10         19.3050   -51.0420    38.5020 h4         1 KQW       0.053800
     29 H11         18.2100   -55.3130    35.7880 ha         1 KQW       0.164000
     30 H12         19.7150   -55.6570    33.7960 ha         1 KQW       0.135000
     31 H13         21.5160   -53.9770    33.3580 h4         1 KQW       0.042100
     32 H1          14.1630   -56.7770    39.8360 h1         1 KQW       0.044033
     33 H           13.3490   -55.9140    38.5260 h1         1 KQW       0.044033
     34 H2          13.8370   -57.6050    38.3050 h1         1 KQW       0.044033
@<TRIPOS>BOND
     1     1     2 1   
     2     1     3 1   
     3     1    13 1   
     4     1    21 1   
     5     2     3 1   
     6     2    22 1   
     7     2    23 1   
     8     3    24 1   
     9     3    25 1   
    10     4    13 1   
    11     4    16 ar  
    12     4    20 ar  
    13     5     6 ar  
    14     5    16 ar  
    15     5    26 1   
    16     6     7 ar  
    17     6    27 1   
    18     7     8 1   
    19     7    20 ar  
    20     8     9 1   
    21     8    15 2   
    22     9    17 2   
    23     9    28 1   
    24    10    11 2   
    25    10    15 1   
    26    10    29 1   
    27    11    12 1   
    28    11    30 1   
    29    12    19 2   
    30    12    31 1   
    31    13    14 1   
    32    14    32 1   
    33    14    33 1   
    34    14    34 1   
    35    15    18 1   
    36    17    18 1   
    37    18    19 1   
@<TRIPOS>SUBSTRUCTURE
     1 KQW         1 TEMP              0 ****  ****    0 ROOT
