@<TRIPOS>MOLECULE
KQX
   34    35     1     0     0
SMALL
abcg2


@<TRIPOS>ATOM
      1 N1           7.6480     0.7200    17.2840 nb         1 KQX      -0.656000
      2 C4          10.3860    -1.1530    22.7110 ca         1 KQX      -0.093300
      3 C5           8.8850    -1.3250    22.7410 c3         1 KQX      -0.106100
      4 C6           8.2220    -0.3190    21.8090 c          1 KQX       0.601100
      5 C7           7.3220    -0.0340    19.5430 ca         1 KQX      -0.099000
      6 C8           8.0440     0.0320    18.3550 ca         1 KQX       0.318900
      7 C10          5.7030     1.3690    18.5240 ca         1 KQX      -0.158000
      8 C13         11.0310    -0.3210    23.6220 ca         1 KQX      -0.093500
      9 O            8.0780     0.8580    22.1180 o          1 KQX      -0.580100
     10 C3          11.1560    -1.7960    21.7390 ca         1 KQX      -0.093500
     11 C2          12.5300    -1.6050    21.6810 ca         1 KQX      -0.109000
     12 C14         12.4080    -0.1320    23.5610 ca         1 KQX      -0.109000
     13 C1          13.1810    -0.7650    22.5890 ca         1 KQX      -0.068300
     14 C           14.6690    -0.5490    22.5090 c3         1 KQX      -0.047800
     15 N            7.8370    -0.8200    20.6050 ns         1 KQX      -0.163000
     16 C11          6.0980     0.6370    19.6440 ca         1 KQX      -0.020300
     17 C12          5.2370     0.5620    20.8660 c3         1 KQX      -0.053800
     18 C9           6.4920     1.3850    17.3840 ca         1 KQX       0.328900
     19 H1           8.5030    -1.1310    23.7440 hc         1 KQX       0.068200
     20 H2           8.6110    -2.3410    22.4570 hc         1 KQX       0.068200
     21 H3           8.9860    -0.5030    18.2800 h4         1 KQX       0.018100
     22 H4           4.7650     1.9100    18.5370 ha         1 KQX       0.124000
     23 H5          10.4530     0.1810    24.3880 ha         1 KQX       0.111500
     24 H6          10.6750    -2.4530    21.0240 ha         1 KQX       0.111500
     25 H7          13.1080    -2.1190    20.9210 ha         1 KQX       0.113000
     26 H8          12.8900     0.5170    24.2840 ha         1 KQX       0.113000
     27 H9          14.9290     0.0540    21.6340 hc         1 KQX       0.044033
     28 H10         15.0400    -0.0310    23.3940 hc         1 KQX       0.044033
     29 H11         15.2020    -1.4970    22.4160 hc         1 KQX       0.044033
     30 H12          8.1160    -1.7650    20.3840 hn         1 KQX       0.152000
     31 H13          5.2310    -0.4500    21.2750 hc         1 KQX       0.054367
     32 H14          5.6230     1.2200    21.6460 hc         1 KQX       0.054367
     33 H15          4.2150     0.8590    20.6320 hc         1 KQX       0.054367
     34 H16          6.1800     1.9500    16.5130 h4         1 KQX       0.021100
@<TRIPOS>BOND
     1     1     6 ar  
     2     1    18 ar  
     3     2     3 1   
     4     2     8 ar  
     5     2    10 ar  
     6     3     4 1   
     7     3    19 1   
     8     3    20 1   
     9     4     9 2   
    10     4    15 1   
    11     5     6 ar  
    12     5    15 1   
    13     5    16 ar  
    14     6    21 1   
    15     7    16 ar  
    16     7    18 ar  
    17     7    22 1   
    18     8    12 ar  
    19     8    23 1   
    20    10    11 ar  
    21    10    24 1   
    22    11    13 ar  
    23    11    25 1   
    24    12    13 ar  
    25    12    26 1   
    26    13    14 1   
    27    14    27 1   
    28    14    28 1   
    29    14    29 1   
    30    15    30 1   
    31    16    17 1   
    32    17    31 1   
    33    17    32 1   
    34    17    33 1   
    35    18    34 1   
@<TRIPOS>SUBSTRUCTURE
     1 KQX         1 TEMP              0 ****  ****    0 ROOT
