@<TRIPOS>MOLECULE
KQX
   34    35     1     0     0
SMALL
No Charge or Current Charge


@<TRIPOS>ATOM
      1 N1           7.3730     0.6430    17.0990 nb         1 KQX      -0.656000
      2 C4          10.4520    -1.1500    22.6810 ca         1 KQX      -0.093300
      3 C5           8.9360    -1.3220    22.6660 c3         1 KQX      -0.106100
      4 C6           8.2750    -0.2510    21.7890 c          1 KQX       0.601100
      5 C7           7.2910     0.0200    19.4530 ca         1 KQX      -0.099000
      6 C8           7.8950     0.0170    18.1770 ca         1 KQX       0.318900
      7 C10          5.5140     1.3360    18.4840 ca         1 KQX      -0.158000
      8 C13         11.0650    -0.3260    23.6440 ca         1 KQX      -0.093500
      9 O            8.0920     0.8940    22.1870 o          1 KQX      -0.580100
     10 C3          11.2520    -1.8040    21.7240 ca         1 KQX      -0.093500
     11 C2          12.6480    -1.6390    21.7350 ca         1 KQX      -0.109000
     12 C14         12.4610    -0.1620    23.6540 ca         1 KQX      -0.109000
     13 C1          13.2600    -0.8190    22.7000 ca         1 KQX      -0.068300
     14 C           14.7700    -0.6380    22.7080 c3         1 KQX      -0.047800
     15 N            7.9450    -0.6730    20.5090 ns         1 KQX      -0.163000
     16 C11          6.0500     0.6850    19.6100 ca         1 KQX      -0.020300
     17 C12          5.2560     0.6830    20.9130 c3         1 KQX      -0.053800
     18 C9           6.2020     1.2970    17.2610 ca         1 KQX       0.328900
     19 H1           8.5450    -1.2310    23.6860 hc         1 KQX       0.068200
     20 H2           8.6950    -2.3180    22.2740 hc         1 KQX       0.068200
     21 H3           8.8420    -0.4980    18.0170 h4         1 KQX       0.018100
     22 H4           4.5660     1.8640    18.5450 ha         1 KQX       0.124000
     23 H5          10.4590     0.1910    24.3860 ha         1 KQX       0.111500
     24 H6          10.7950    -2.4420    20.9710 ha         1 KQX       0.111500
     25 H7          13.2540    -2.1500    20.9890 ha         1 KQX       0.113000
     26 H8          12.9200     0.4790    24.4030 ha         1 KQX       0.113000
     27 H9          15.0650     0.2110    22.0800 hc         1 KQX       0.044033
     28 H10         15.1460    -0.4510    23.7220 hc         1 KQX       0.044033
     29 H11         15.2820    -1.5300    22.3280 hc         1 KQX       0.044033
     30 H12          8.2230    -1.6210    20.2870 hn         1 KQX       0.152000
     31 H13          5.3990    -0.2450    21.4790 hc         1 KQX       0.054367
     32 H14          5.5460     1.5240    21.5530 hc         1 KQX       0.054367
     33 H15          4.1800     0.7750    20.7220 hc         1 KQX       0.054367
     34 H16          5.7970     1.7940    16.3800 h4         1 KQX       0.021100
@<TRIPOS>BOND
     1     1     6 ar  
     2     1    18 ar  
     3     2     3 1   
     4     2     8 ar  
     5     2    10 ar  
     6     3     4 1   
     7     3    19 1   
     8     3    20 1   
     9     4     9 2   
    10     4    15 1   
    11     5     6 ar  
    12     5    15 1   
    13     5    16 ar  
    14     6    21 1   
    15     7    16 ar  
    16     7    18 ar  
    17     7    22 1   
    18     8    12 ar  
    19     8    23 1   
    20    10    11 ar  
    21    10    24 1   
    22    11    13 ar  
    23    11    25 1   
    24    12    13 ar  
    25    12    26 1   
    26    13    14 1   
    27    14    27 1   
    28    14    28 1   
    29    14    29 1   
    30    15    30 1   
    31    16    17 1   
    32    17    31 1   
    33    17    32 1   
    34    17    33 1   
    35    18    34 1   
@<TRIPOS>SUBSTRUCTURE
     1 KQX         1 TEMP              0 ****  ****    0 ROOT
