@<TRIPOS>MOLECULE
KQY
   23    22     1     0     0
SMALL
bcc


@<TRIPOS>ATOM
      1 O8          -2.9800    -1.1870     0.8000 o          1 KQY      -0.606100
      2 C7          -2.8650    -0.1050     0.2380 c          1 KQY       0.670100
      3 N9          -3.8960     0.5110    -0.3600 nt         1 KQY      -0.680000
      4 C6          -1.5530     0.6480     0.1930 c3         1 KQY      -0.158400
      5 C5          -0.3320    -0.2570     0.1010 c3         1 KQY      -0.065400
      6 C4           0.9650     0.5420     0.1070 c3         1 KQY      -0.077400
      7 C3           2.2070    -0.3320    -0.0110 c3         1 KQY      -0.078400
      8 C2           3.4950     0.4760     0.0100 c3         1 KQY       0.149800
      9 N1           4.6600    -0.3900    -0.1150 n8         1 KQY      -0.883800
     10 H1          -4.8200     0.1120    -0.3290 hn         1 KQY       0.311500
     11 H2          -3.7910     1.3990    -0.8190 hn         1 KQY       0.311500
     12 H3          -1.5530     1.3620    -0.6340 hc         1 KQY       0.053200
     13 H4          -1.4950     1.2480     1.1080 hc         1 KQY       0.053200
     14 H5          -0.3300    -0.9640     0.9340 hc         1 KQY       0.055700
     15 H6          -0.3850    -0.8560    -0.8140 hc         1 KQY       0.055700
     16 H7           0.9510     1.2660    -0.7150 hc         1 KQY       0.034200
     17 H8           1.0210     1.1330     1.0290 hc         1 KQY       0.034200
     18 H9           2.2280    -1.0620     0.8050 hc         1 KQY       0.048700
     19 H10          2.1560    -0.9090    -0.9410 hc         1 KQY       0.048700
     20 H11          3.4400     1.2500    -0.7690 h1         1 KQY       0.025200
     21 H12          3.5650     1.0080     0.9630 h1         1 KQY       0.025200
     22 H13          4.6610    -0.8110    -1.0370 hn         1 KQY       0.335800
     23 H14          5.5020     0.1700    -0.0740 hn         1 KQY       0.335800
@<TRIPOS>BOND
     1     1     2 2   
     2     2     3 1   
     3     2     4 1   
     4     3    10 1   
     5     3    11 1   
     6     4     5 1   
     7     4    12 1   
     8     4    13 1   
     9     5     6 1   
    10     5    14 1   
    11     5    15 1   
    12     6     7 1   
    13     6    16 1   
    14     6    17 1   
    15     7     8 1   
    16     7    18 1   
    17     7    19 1   
    18     8     9 1   
    19     8    20 1   
    20     8    21 1   
    21     9    22 1   
    22     9    23 1   
@<TRIPOS>SUBSTRUCTURE
     1 KQY         1 TEMP              0 ****  ****    0 ROOT
