@<TRIPOS>MOLECULE
KQY
   23    22     1     0     0
SMALL
No Charge or Current Charge


@<TRIPOS>ATOM
      1 O8          -3.3810    -0.6160     1.3490 o          1 KQY      -0.606100
      2 C7          -2.9390     0.0490     0.4280 c          1 KQY       0.603100
      3 N9          -3.6190     0.1460    -0.7340 nt         1 KQY      -0.613000
      4 C6          -1.6120     0.8100     0.4990 c3         1 KQY      -0.158400
      5 C5          -0.4120    -0.1150     0.1860 c3         1 KQY      -0.065400
      6 C4           0.9470     0.6180     0.2450 c3         1 KQY      -0.077400
      7 C3           2.1470    -0.3050    -0.0660 c3         1 KQY      -0.078400
      8 C2           3.5000     0.4330    -0.0050 c3         1 KQY       0.149800
      9 N1           4.6250    -0.4720    -0.3020 n8         1 KQY      -0.994200
     10 H1          -4.5000    -0.3370    -0.8330 hn         1 KQY       0.311500
     11 H2          -3.2460     0.6970    -1.4930 hn         1 KQY       0.311500
     12 H3          -1.6100     1.6170    -0.2440 hc         1 KQY       0.053200
     13 H4          -1.4870     1.2210     1.5080 hc         1 KQY       0.053200
     14 H5          -0.4030    -0.9480     0.9010 hc         1 KQY       0.055700
     15 H6          -0.5440    -0.5530    -0.8120 hc         1 KQY       0.055700
     16 H7           0.9390     1.4500    -0.4710 hc         1 KQY       0.034200
     17 H8           1.0780     1.0540     1.2430 hc         1 KQY       0.034200
     18 H9           2.1570    -1.1360     0.6510 hc         1 KQY       0.048700
     19 H10          2.0170    -0.7410    -1.0640 hc         1 KQY       0.048700
     20 H11          3.5080     1.2560    -0.7340 h1         1 KQY       0.025200
     21 H12          3.6460     0.8560     0.9990 h1         1 KQY       0.025200
     22 H13          4.5390    -0.8030    -1.2710 hn         1 KQY       0.391000
     23 H14          5.4980     0.0710    -0.3110 hn         1 KQY       0.391000
@<TRIPOS>BOND
     1     1     2 2   
     2     2     3 1   
     3     2     4 1   
     4     3    10 1   
     5     3    11 1   
     6     4     5 1   
     7     4    12 1   
     8     4    13 1   
     9     5     6 1   
    10     5    14 1   
    11     5    15 1   
    12     6     7 1   
    13     6    16 1   
    14     6    17 1   
    15     7     8 1   
    16     7    18 1   
    17     7    19 1   
    18     8     9 1   
    19     8    20 1   
    20     8    21 1   
    21     9    22 1   
    22     9    23 1   
@<TRIPOS>SUBSTRUCTURE
     1 KQY         1 TEMP              0 ****  ****    0 ROOT
