@<TRIPOS>MOLECULE
KQZ
   31    33     1     0     0
SMALL
abcg2


@<TRIPOS>ATOM
      1 C10         -1.5110    -1.5050    -0.0400 ca         1 KQZ      -0.011000
      2 C            4.6200    -1.3230    -0.0070 c3         1 KQZ       0.225100
      3 C1           2.4040    -2.4180     0.0710 c3         1 KQZ       0.225100
      4 C11         -2.6340    -2.3140    -0.0530 ca         1 KQZ      -0.199000
      5 C12         -3.9110    -1.7430    -0.0600 ca         1 KQZ       0.355900
      6 C2           2.5540    -0.0040     0.0000 ca         1 KQZ       0.396900
      7 C3           2.6310     2.2530    -0.0290 ca         1 KQZ       0.153900
      8 C4           1.2540     2.3390    -0.0340 ca         1 KQZ      -0.294000
      9 C5           0.5620     1.1230    -0.0190 ca         1 KQZ       0.272800
     10 C6          -0.8880     1.0530    -0.0240 cc         1 KQZ      -0.223000
     11 C7          -1.7570     2.1200    -0.0250 cd         1 KQZ      -0.114100
     12 C8          -3.0520     0.3170    -0.0420 ca         1 KQZ       0.355500
     13 C9          -1.7110    -0.1250    -0.0340 ca         1 KQZ      -0.096800
     14 N1           3.2980     1.1100    -0.0110 nb         1 KQZ      -0.254000
     15 N2          -3.0380     1.6820    -0.0370 na         1 KQZ      -0.318400
     16 N3          -4.1370    -0.4370    -0.0540 nb         1 KQZ      -0.683000
     17 N4           1.2150    -0.0330    -0.0020 nb         1 KQZ      -0.265000
     18 H10         -0.5150    -1.9230    -0.0350 ha         1 KQZ       0.140000
     19 H1           5.0780    -0.3590    -0.2000 h1         1 KQZ       0.042200
     20 H2           5.0010    -1.7030     0.9440 h1         1 KQZ       0.042200
     21 H3           4.9260    -2.0140    -0.7940 h1         1 KQZ       0.042200
     22 H6           1.7730    -2.5450    -0.8110 h1         1 KQZ       0.042200
     23 H4           3.0880    -3.2620     0.1220 h1         1 KQZ       0.042200
     24 H5           1.7590    -2.4520     0.9500 h1         1 KQZ       0.042200
     25 H11         -2.5370    -3.3910    -0.0590 ha         1 KQZ       0.121000
     26 H12         -4.7850    -2.3830    -0.0710 h4         1 KQZ       0.018100
     27 H7           3.2310     3.1570    -0.0400 h4         1 KQZ       0.016100
     28 H8           0.7570     3.2980    -0.0490 ha         1 KQZ       0.126000
     29 H9          -1.5510     3.1780    -0.0200 h4         1 KQZ       0.218000
     30 H           -3.8540     2.2740    -0.0300 hn         1 KQZ       0.363000
     31 N            3.1800    -1.1990     0.0140 nh         1 KQZ      -0.780300
@<TRIPOS>BOND
     1     1     4 ar  
     2     1    13 ar  
     3     1    18 1   
     4     2    19 1   
     5     2    20 1   
     6     2    21 1   
     7     2    31 1   
     8     3    22 1   
     9     3    23 1   
    10     3    24 1   
    11     3    31 1   
    12     4     5 ar  
    13     4    25 1   
    14     5    16 ar  
    15     5    26 1   
    16     6    14 ar  
    17     6    17 ar  
    18     6    31 1   
    19     7     8 ar  
    20     7    14 ar  
    21     7    27 1   
    22     8     9 ar  
    23     8    28 1   
    24     9    10 1   
    25     9    17 ar  
    26    10    11 2   
    27    10    13 1   
    28    11    15 1   
    29    11    29 1   
    30    12    13 ar  
    31    12    15 1   
    32    12    16 ar  
    33    15    30 1   
@<TRIPOS>SUBSTRUCTURE
     1 KQZ         1 TEMP              0 ****  ****    0 ROOT
