@<TRIPOS>MOLECULE
KQZ
   31    33     1     0     0
SMALL
No Charge or Current Charge


@<TRIPOS>ATOM
      1 C10         -1.6370    -1.4290     0.4350 ca         1 KQZ      -0.011000
      2 C            4.7400    -1.2810    -0.0690 c3         1 KQZ       0.225100
      3 C1           2.5490    -2.5050    -0.4590 c3         1 KQZ       0.225100
      4 C11         -2.7630    -2.2710     0.4100 ca         1 KQZ      -0.199000
      5 C12         -4.0180    -1.7330     0.0550 ca         1 KQZ       0.355900
      6 C2           2.5450    -0.0160     0.0240 ca         1 KQZ       0.396900
      7 C3           2.5910     2.2400     0.4470 ca         1 KQZ       0.153900
      8 C4           1.1920     2.2770     0.3780 ca         1 KQZ      -0.294000
      9 C5           0.5120     1.0730     0.1160 ca         1 KQZ       0.272800
     10 C6          -0.9520     1.0280     0.0230 cc         1 KQZ      -0.223000
     11 C7          -1.6950     2.1280    -0.3840 cd         1 KQZ      -0.114100
     12 C8          -3.1160     0.3700    -0.2400 ca         1 KQZ       0.355500
     13 C9          -1.8570    -0.0880     0.0890 ca         1 KQZ      -0.096800
     14 N1           3.2720     1.0950     0.2700 nb         1 KQZ      -0.254000
     15 N2          -3.0460     1.7220    -0.5210 na         1 KQZ      -0.318400
     16 N3          -4.2020    -0.4270    -0.2660 nb         1 KQZ      -0.683000
     17 N4           1.2000    -0.0720    -0.0590 nb         1 KQZ      -0.265000
     18 H10         -0.6560    -1.8050     0.7150 ha         1 KQZ       0.140000
     19 H1           5.1960    -0.6470    -0.8420 h1         1 KQZ       0.042200
     20 H2           5.0760    -0.9340     0.9170 h1         1 KQZ       0.042200
     21 H3           5.1180    -2.3030    -0.2080 h1         1 KQZ       0.042200
     22 H6           1.9380    -2.4040    -1.3660 h1         1 KQZ       0.042200
     23 H4           3.2550    -3.3290    -0.6240 h1         1 KQZ       0.042200
     24 H5           1.8950    -2.7840     0.3790 h1         1 KQZ       0.042200
     25 H11         -2.6750    -3.3230     0.6650 ha         1 KQZ       0.121000
     26 H12         -4.9040    -2.3670     0.0300 h4         1 KQZ       0.018100
     27 H7           3.1740     3.1370     0.6500 h4         1 KQZ       0.016100
     28 H8           0.6600     3.2100     0.5350 ha         1 KQZ       0.126000
     29 H9          -1.3730     3.1430    -0.6090 h4         1 KQZ       0.218000
     30 H           -3.8280     2.2990    -0.8060 hn         1 KQZ       0.363000
     31 N            3.2570    -1.2310    -0.1630 nh         1 KQZ      -0.780300
@<TRIPOS>BOND
     1     1     4 ar  
     2     1    13 ar  
     3     1    18 1   
     4     2    19 1   
     5     2    20 1   
     6     2    21 1   
     7     2    31 1   
     8     3    22 1   
     9     3    23 1   
    10     3    24 1   
    11     3    31 1   
    12     4     5 ar  
    13     4    25 1   
    14     5    16 ar  
    15     5    26 1   
    16     6    14 ar  
    17     6    17 ar  
    18     6    31 1   
    19     7     8 ar  
    20     7    14 ar  
    21     7    27 1   
    22     8     9 ar  
    23     8    28 1   
    24     9    10 1   
    25     9    17 ar  
    26    10    11 2   
    27    10    13 1   
    28    11    15 1   
    29    11    29 1   
    30    12    13 ar  
    31    12    15 1   
    32    12    16 ar  
    33    15    30 1   
@<TRIPOS>SUBSTRUCTURE
     1 KQZ         1 TEMP              0 ****  ****    0 ROOT
