@<TRIPOS>MOLECULE
KR0
   71    70     1     0     0
SMALL
abcg2


@<TRIPOS>ATOM
      1 C1          -1.2300    -1.3370    -0.1790 c3         1 KR0       0.165600
      2 O1          -2.3750    -0.4830    -0.1620 os         1 KR0      -0.451100
      3 C2           0.0070    -0.4600    -0.1810 c3         1 KR0      -0.089400
      4 C3           1.2430    -1.3360    -0.1950 c3         1 KR0       0.165600
      5 C4           7.1970     0.3420    -0.0630 c3         1 KR0      -0.074400
      6 O4           2.3890    -0.4850    -0.1730 os         1 KR0      -0.451100
      7 C5           3.5840    -1.0700    -0.1690 c          1 KR0       0.593100
      8 C6           8.5780    -0.2970     0.0070 c3         1 KR0      -0.074900
      9 C7          -3.5700    -1.0630    -0.1060 c          1 KR0       0.593100
     10 C8           9.7170     0.7140     0.0210 c3         1 KR0      -0.073400
     11 O8           3.7310    -2.2650    -0.1850 o          1 KR0      -0.485000
     12 C9          11.0910     0.0600     0.0950 c3         1 KR0      -0.074900
     13 O9          -3.7220    -2.2580    -0.0750 o          1 KR0      -0.485000
     14 C10          4.7000    -0.0600    -0.1440 c3         1 KR0      -0.136400
     15 C11          6.0800    -0.6930    -0.0790 c3         1 KR0      -0.069400
     16 C12         -4.6820    -0.0490    -0.0870 c3         1 KR0      -0.136400
     17 C13         -6.0640    -0.6780    -0.0330 c3         1 KR0      -0.069400
     18 C14         12.2390     1.0610     0.1090 c3         1 KR0      -0.075400
     19 C15         13.6110     0.4020     0.1810 c3         1 KR0      -0.074900
     20 C16         14.7520     1.4080     0.1950 c3         1 KR0      -0.088100
     21 C17         -7.1800     0.3590    -0.0190 c3         1 KR0      -0.074400
     22 C18         -8.5630    -0.2780     0.0420 c3         1 KR0      -0.074900
     23 C19         -9.7010     0.7330     0.0560 c3         1 KR0      -0.073400
     24 C20        -11.0760     0.0790     0.1200 c3         1 KR0      -0.074900
     25 C21        -12.2240     1.0800     0.1340 c3         1 KR0      -0.075400
     26 C22        -13.5960     0.4190     0.1930 c3         1 KR0      -0.074900
     27 C23        -14.7370     1.4260     0.2070 c3         1 KR0      -0.088100
     28 H1          -1.2370    -1.9900     0.6970 h1         1 KR0       0.050950
     29 H1A         -1.2540    -1.9740    -1.0670 h1         1 KR0       0.050950
     30 H2           0.0020     0.1910    -1.0590 hc         1 KR0       0.066700
     31 H2A          0.0120     0.1740     0.7080 hc         1 KR0       0.066700
     32 H3           1.2550    -2.0000     0.6740 h1         1 KR0       0.050950
     33 H3A          1.2620    -1.9650    -1.0890 h1         1 KR0       0.050950
     34 H4           7.0640     1.0150     0.7910 hc         1 KR0       0.037700
     35 H4A          7.1300     0.9710    -0.9570 hc         1 KR0       0.037700
     36 H6           8.6410    -0.9250     0.9020 hc         1 KR0       0.039700
     37 H6A          8.7060    -0.9740    -0.8440 hc         1 KR0       0.039700
     38 H8           9.6590     1.3410    -0.8750 hc         1 KR0       0.036700
     39 H8A          9.5910     1.3930     0.8720 hc         1 KR0       0.036700
     40 H9          11.1470    -0.5670     0.9920 hc         1 KR0       0.037700
     41 H9A         11.2140    -0.6200    -0.7550 hc         1 KR0       0.037700
     42 H10          4.6060     0.5730    -1.0320 hc         1 KR0       0.071200
     43 H10A         4.5410     0.6100     0.7070 hc         1 KR0       0.071200
     44 H11          6.2180    -1.3610    -0.9330 hc         1 KR0       0.054450
     45 H11A         6.1540    -1.3200     0.8130 hc         1 KR0       0.054450
     46 H12         -4.5260     0.6160     0.7690 hc         1 KR0       0.071200
     47 H12A        -4.5790     0.5900    -0.9690 hc         1 KR0       0.071200
     48 H13         -6.1990    -1.3440    -0.8890 hc         1 KR0       0.054450
     49 H13A        -6.1460    -1.3090     0.8560 hc         1 KR0       0.054450
     50 H14         12.1850     1.6890    -0.7870 hc         1 KR0       0.036700
     51 H14A        12.1190     1.7420     0.9590 hc         1 KR0       0.036700
     52 H15         13.6640    -0.2260     1.0760 hc         1 KR0       0.036700
     53 H15A        13.7300    -0.2780    -0.6690 hc         1 KR0       0.036700
     54 H16         14.7410     2.0290    -0.7030 hc         1 KR0       0.031367
     55 H16A        14.6780     2.0750     1.0560 hc         1 KR0       0.031367
     56 H16B        15.7230     0.9160     0.2430 hc         1 KR0       0.031367
     57 H17         -7.0500     1.0300     0.8360 hc         1 KR0       0.037700
     58 H17A        -7.1090     0.9910    -0.9110 hc         1 KR0       0.037700
     59 H18         -8.6880    -0.9530    -0.8120 hc         1 KR0       0.039700
     60 H18A        -8.6300    -0.9110     0.9340 hc         1 KR0       0.039700
     61 H19         -9.5790     1.4080     0.9090 hc         1 KR0       0.036700
     62 H19A        -9.6390     1.3640    -0.8380 hc         1 KR0       0.036700
     63 H20        -11.1950    -0.5980    -0.7330 hc         1 KR0       0.037700
     64 H20A       -11.1350    -0.5530     1.0130 hc         1 KR0       0.037700
     65 H21        -12.1090     1.7540     0.9910 hc         1 KR0       0.036700
     66 H21A       -12.1640     1.7150    -0.7560 hc         1 KR0       0.036700
     67 H22        -13.7090    -0.2540    -0.6620 hc         1 KR0       0.036700
     68 H22A       -13.6540    -0.2150     1.0830 hc         1 KR0       0.036700
     69 H23        -14.6690     2.0870     1.0730 hc         1 KR0       0.031367
     70 H23A       -14.7210     2.0520    -0.6860 hc         1 KR0       0.031367
     71 H23B       -15.7090     0.9320     0.2450 hc         1 KR0       0.031367
@<TRIPOS>BOND
     1     1     2 1   
     2     1     3 1   
     3     1    28 1   
     4     1    29 1   
     5     2     9 1   
     6     3     4 1   
     7     3    30 1   
     8     3    31 1   
     9     4     6 1   
    10     4    32 1   
    11     4    33 1   
    12     5     8 1   
    13     5    15 1   
    14     5    34 1   
    15     5    35 1   
    16     6     7 1   
    17     7    11 2   
    18     7    14 1   
    19     8    10 1   
    20     8    36 1   
    21     8    37 1   
    22     9    13 2   
    23     9    16 1   
    24    10    12 1   
    25    10    38 1   
    26    10    39 1   
    27    12    18 1   
    28    12    40 1   
    29    12    41 1   
    30    14    15 1   
    31    14    42 1   
    32    14    43 1   
    33    15    44 1   
    34    15    45 1   
    35    16    17 1   
    36    16    46 1   
    37    16    47 1   
    38    17    21 1   
    39    17    48 1   
    40    17    49 1   
    41    18    19 1   
    42    18    50 1   
    43    18    51 1   
    44    19    20 1   
    45    19    52 1   
    46    19    53 1   
    47    20    54 1   
    48    20    55 1   
    49    20    56 1   
    50    21    22 1   
    51    21    57 1   
    52    21    58 1   
    53    22    23 1   
    54    22    59 1   
    55    22    60 1   
    56    23    24 1   
    57    23    61 1   
    58    23    62 1   
    59    24    25 1   
    60    24    63 1   
    61    24    64 1   
    62    25    26 1   
    63    25    65 1   
    64    25    66 1   
    65    26    27 1   
    66    26    67 1   
    67    26    68 1   
    68    27    69 1   
    69    27    70 1   
    70    27    71 1   
@<TRIPOS>SUBSTRUCTURE
     1 KR0         1 TEMP              0 ****  ****    0 ROOT
