@<TRIPOS>MOLECULE
KR0
   71    70     1     0     0
SMALL
No Charge or Current Charge


@<TRIPOS>ATOM
      1 C1          -1.1470    -3.1410     0.2950 c3         1 KR0       0.165600
      2 O1          -2.1700    -2.3530     0.9260 os         1 KR0      -0.451100
      3 C2          -0.0240    -2.1830    -0.1410 c3         1 KR0      -0.089400
      4 C3           1.1010    -2.9020    -0.9070 c3         1 KR0       0.165600
      5 C4           6.3200    -0.0360    -1.4010 c3         1 KR0      -0.074400
      6 O4           2.0940    -1.9190    -1.2430 os         1 KR0      -0.451100
      7 C5           3.1790    -2.3250    -1.9760 c          1 KR0       0.593100
      8 C6           7.4760    -0.0560    -0.3770 c3         1 KR0      -0.074900
      9 C7          -3.2790    -3.0050     1.4030 c          1 KR0       0.593100
     10 C8           8.4930     1.0860    -0.5910 c3         1 KR0      -0.073400
     11 O8           3.3610    -3.4710    -2.3670 o          1 KR0      -0.485000
     12 C9           9.6550     1.0600     0.4250 c3         1 KR0      -0.074900
     13 O9          -3.4630    -4.2120     1.3180 o          1 KR0      -0.485000
     14 C10          4.1590    -1.1780    -2.2280 c3         1 KR0      -0.136400
     15 C11          5.3030    -1.1780    -1.1860 c3         1 KR0      -0.069400
     16 C12         -4.3110    -2.0290     1.9720 c3         1 KR0      -0.136400
     17 C13         -5.3210    -1.5910     0.8850 c3         1 KR0      -0.069400
     18 C14         10.6680     2.2070     0.2160 c3         1 KR0      -0.075400
     19 C15         11.8290     2.1800     1.2330 c3         1 KR0      -0.074900
     20 C16         12.8390     3.3260     1.0270 c3         1 KR0      -0.088100
     21 C17         -6.4050    -0.6250     1.4120 c3         1 KR0      -0.074400
     22 C18         -7.4090    -0.1970     0.3190 c3         1 KR0      -0.074900
     23 C19         -8.5100     0.7510     0.8400 c3         1 KR0      -0.073400
     24 C20         -9.5110     1.1750    -0.2580 c3         1 KR0      -0.074900
     25 C21        -10.6210     2.1140     0.2630 c3         1 KR0      -0.075400
     26 C22        -11.6170     2.5400    -0.8380 c3         1 KR0      -0.074900
     27 C23        -12.7310     3.4700    -0.3190 c3         1 KR0      -0.088100
     28 H1          -0.7430    -3.8910     0.9900 h1         1 KR0       0.050950
     29 H1A         -1.5480    -3.6620    -0.5850 h1         1 KR0       0.050950
     30 H2          -0.4470    -1.3990    -0.7810 hc         1 KR0       0.066700
     31 H2A          0.3960    -1.6940     0.7450 hc         1 KR0       0.066700
     32 H3           1.5330    -3.6910    -0.2760 h1         1 KR0       0.050950
     33 H3A          0.6890    -3.3670    -1.8130 h1         1 KR0       0.050950
     34 H4           5.7990     0.9270    -1.3390 hc         1 KR0       0.037700
     35 H4A          6.7370    -0.1110    -2.4140 hc         1 KR0       0.037700
     36 H6           7.0610     0.0160     0.6370 hc         1 KR0       0.039700
     37 H6A          7.9980    -1.0190    -0.4410 hc         1 KR0       0.039700
     38 H8           8.9020     1.0180    -1.6070 hc         1 KR0       0.036700
     39 H8A          7.9720     2.0500    -0.5200 hc         1 KR0       0.036700
     40 H9           9.2450     1.1230     1.4420 hc         1 KR0       0.037700
     41 H9A         10.1780     0.0990     0.3490 hc         1 KR0       0.037700
     42 H10          4.5890    -1.2880    -3.2310 hc         1 KR0       0.071200
     43 H10A         3.6270    -0.2230    -2.1400 hc         1 KR0       0.071200
     44 H11          5.8280    -2.1410    -1.2280 hc         1 KR0       0.054450
     45 H11A         4.8730    -1.0940    -0.1790 hc         1 KR0       0.054450
     46 H12         -4.8530    -2.5160     2.7920 hc         1 KR0       0.071200
     47 H12A        -3.7960    -1.1290     2.3290 hc         1 KR0       0.071200
     48 H13         -4.7770    -1.1090     0.0620 hc         1 KR0       0.054450
     49 H13A        -5.8070    -2.4810     0.4660 hc         1 KR0       0.054450
     50 H14         11.0780     2.1450    -0.8000 hc         1 KR0       0.036700
     51 H14A        10.1450     3.1680     0.2920 hc         1 KR0       0.036700
     52 H15         11.4240     2.2420     2.2510 hc         1 KR0       0.036700
     53 H15A        12.3580     1.2210     1.1570 hc         1 KR0       0.036700
     54 H16         13.2900     3.2700     0.0290 hc         1 KR0       0.031367
     55 H16A        12.3460     4.3000     1.1310 hc         1 KR0       0.031367
     56 H16B        13.6420     3.2660     1.7700 hc         1 KR0       0.031367
     57 H17         -6.9500    -1.1070     2.2330 hc         1 KR0       0.037700
     58 H17A        -5.9220     0.2690     1.8280 hc         1 KR0       0.037700
     59 H18         -6.8650     0.2980    -0.4960 hc         1 KR0       0.039700
     60 H18A        -7.8790    -1.0920    -0.1080 hc         1 KR0       0.039700
     61 H19         -9.0560     0.2570     1.6540 hc         1 KR0       0.036700
     62 H19A        -8.0420     1.6480     1.2670 hc         1 KR0       0.036700
     63 H20         -8.9650     1.6760    -1.0670 hc         1 KR0       0.037700
     64 H20A        -9.9720     0.2780    -0.6900 hc         1 KR0       0.037700
     65 H21        -11.1700     1.6110     1.0690 hc         1 KR0       0.036700
     66 H21A       -10.1610     3.0100     0.6990 hc         1 KR0       0.036700
     67 H22        -11.0730     3.0500    -1.6430 hc         1 KR0       0.036700
     68 H22A       -12.0760     1.6470    -1.2780 hc         1 KR0       0.036700
     69 H23        -13.3190     2.9730     0.4610 hc         1 KR0       0.031367
     70 H23A       -12.3050     4.3900     0.1010 hc         1 KR0       0.031367
     71 H23B       -13.4080     3.7470    -1.1350 hc         1 KR0       0.031367
@<TRIPOS>BOND
     1     1     2 1   
     2     1     3 1   
     3     1    28 1   
     4     1    29 1   
     5     2     9 1   
     6     3     4 1   
     7     3    30 1   
     8     3    31 1   
     9     4     6 1   
    10     4    32 1   
    11     4    33 1   
    12     5     8 1   
    13     5    15 1   
    14     5    34 1   
    15     5    35 1   
    16     6     7 1   
    17     7    11 2   
    18     7    14 1   
    19     8    10 1   
    20     8    36 1   
    21     8    37 1   
    22     9    13 2   
    23     9    16 1   
    24    10    12 1   
    25    10    38 1   
    26    10    39 1   
    27    12    18 1   
    28    12    40 1   
    29    12    41 1   
    30    14    15 1   
    31    14    42 1   
    32    14    43 1   
    33    15    44 1   
    34    15    45 1   
    35    16    17 1   
    36    16    46 1   
    37    16    47 1   
    38    17    21 1   
    39    17    48 1   
    40    17    49 1   
    41    18    19 1   
    42    18    50 1   
    43    18    51 1   
    44    19    20 1   
    45    19    52 1   
    46    19    53 1   
    47    20    54 1   
    48    20    55 1   
    49    20    56 1   
    50    21    22 1   
    51    21    57 1   
    52    21    58 1   
    53    22    23 1   
    54    22    59 1   
    55    22    60 1   
    56    23    24 1   
    57    23    61 1   
    58    23    62 1   
    59    24    25 1   
    60    24    63 1   
    61    24    64 1   
    62    25    26 1   
    63    25    65 1   
    64    25    66 1   
    65    26    27 1   
    66    26    67 1   
    67    26    68 1   
    68    27    69 1   
    69    27    70 1   
    70    27    71 1   
@<TRIPOS>SUBSTRUCTURE
     1 KR0         1 TEMP              0 ****  ****    0 ROOT
