@<TRIPOS>MOLECULE
KR1
   51    53     1     0     0
SMALL
abcg2


@<TRIPOS>ATOM
      1 F1           2.5240    -2.0410    -2.3010 f          1 KR1      -0.221200
      2 N1          -0.7790    -2.0230    -4.0230 n1         1 KR1      -0.426000
      3 O1          -1.0970     0.5380     2.5700 o          1 KR1      -0.492100
      4 C2          -1.9350    -2.9760    -0.8770 ca         1 KR1      -0.041000
      5 N2           1.0100     3.7560    -0.3390 ns         1 KR1      -0.465500
      6 O2          -0.9080     4.6490    -1.0940 o          1 KR1      -0.516000
      7 C3          -1.3460    -1.8860    -1.5110 ca         1 KR1      -0.012000
      8 N3           1.1150     1.7790     0.8510 n          1 KR1      -0.300000
      9 C4          -1.0290    -0.7320    -0.8030 ca         1 KR1      -0.029000
     10 C5          -1.3040    -0.6860     0.5560 ca         1 KR1      -0.172600
     11 N5           1.7700    -2.9830    -0.4320 nb         1 KR1      -0.786000
     12 C6          -1.9080    -1.7760     1.1840 ca         1 KR1      -0.046000
     13 C7          -2.2290    -2.9290     0.4830 ca         1 KR1      -0.097300
     14 C8          -0.9100     0.4810     1.3780 c          1 KR1       0.595900
     15 C9          -0.2500     1.6620     0.6940 cc         1 KR1       0.018400
     16 C10         -2.8730    -4.0990     1.1620 c3         1 KR1      -0.049800
     17 C11         -1.0200     2.5620     0.0470 cd         1 KR1      -0.227400
     18 C12         -0.3590     3.7340    -0.5120 c          1 KR1       0.590200
     19 C13          1.7980     2.8450     0.3030 c          1 KR1       0.618000
     20 C14         -2.5220     2.4290    -0.0630 c3         1 KR1       0.008500
     21 C15         -3.2380     3.4810     0.7870 c3         1 KR1      -0.088600
     22 C16         -3.0210     2.4240    -1.5080 c3         1 KR1      -0.088600
     23 C17          1.8890     0.7770     1.5880 c3         1 KR1       0.132300
     24 C18          1.8970    -0.5540     0.8880 ca         1 KR1      -0.016300
     25 C19          1.4830    -1.6830     1.5560 ca         1 KR1      -0.257000
     26 C20          1.4170    -2.9020     0.8520 ca         1 KR1       0.656900
     27 C21          2.1820    -1.8910    -1.0170 ca         1 KR1       0.623200
     28 C22          2.2770    -0.6390    -0.4530 ca         1 KR1      -0.253000
     29 H2          -2.1590    -3.8680    -1.4480 ha         1 KR1       0.132000
     30 HN2          1.5020     4.5470    -0.7390 hn         1 KR1       0.348500
     31 H4          -0.5560     0.0980    -1.3090 ha         1 KR1       0.141000
     32 HN4          0.7990    -4.8420     0.8920 hn         1 KR1       0.494000
     33 HN4A         0.5810    -3.9950     2.3650 hn         1 KR1       0.494000
     34 H6          -2.1110    -1.7290     2.2470 ha         1 KR1       0.134000
     35 H10         -3.9480    -4.1120     0.9700 hc         1 KR1       0.049033
     36 H10A        -2.4660    -5.0410     0.7980 hc         1 KR1       0.049033
     37 H10B        -2.7310    -4.0610     2.2400 hc         1 KR1       0.049033
     38 H14         -2.8060     1.4600     0.3550 hc         1 KR1       0.039700
     39 H15         -3.0200     4.4930     0.4500 hc         1 KR1       0.043033
     40 H15A        -4.3170     3.3340     0.7280 hc         1 KR1       0.043033
     41 H15B        -2.9480     3.4010     1.8360 hc         1 KR1       0.043033
     42 H16         -2.8910     3.3900    -1.9890 hc         1 KR1       0.043033
     43 H16A        -2.5040     1.6740    -2.1070 hc         1 KR1       0.043033
     44 H16B        -4.0840     2.1800    -1.5250 hc         1 KR1       0.043033
     45 H17          2.9040     1.1560     1.6780 h1         1 KR1       0.092200
     46 H17A         1.4970     0.6840     2.5990 h1         1 KR1       0.092200
     47 H19          1.1690    -1.6350     2.5910 ha         1 KR1       0.130000
     48 H22          2.6230     0.2130    -1.0210 ha         1 KR1       0.152000
     49 N4           0.9990    -4.0320     1.4530 nv         1 KR1      -1.074900
     50 O3           3.0020     2.9760     0.3780 o          1 KR1      -0.550000
     51 C1          -1.0330    -1.9620    -2.9020 cg         1 KR1       0.313000
@<TRIPOS>BOND
     1     1    27 1   
     2     2    51 3   
     3     3    14 2   
     4     4     7 ar  
     5     4    13 ar  
     6     4    29 1   
     7     5    18 1   
     8     5    19 1   
     9     5    30 1   
    10     6    18 2   
    11     7     9 ar  
    12     7    51 1   
    13     8    15 1   
    14     8    19 1   
    15     8    23 1   
    16     9    10 ar  
    17     9    31 1   
    18    10    12 ar  
    19    10    14 1   
    20    11    26 ar  
    21    11    27 ar  
    22    12    13 ar  
    23    12    34 1   
    24    13    16 1   
    25    14    15 1   
    26    15    17 2   
    27    16    35 1   
    28    16    36 1   
    29    16    37 1   
    30    17    18 1   
    31    17    20 1   
    32    19    50 2   
    33    20    21 1   
    34    20    22 1   
    35    20    38 1   
    36    21    39 1   
    37    21    40 1   
    38    21    41 1   
    39    22    42 1   
    40    22    43 1   
    41    22    44 1   
    42    23    24 1   
    43    23    45 1   
    44    23    46 1   
    45    24    25 ar  
    46    24    28 ar  
    47    25    26 ar  
    48    25    47 1   
    49    26    49 1   
    50    27    28 ar  
    51    28    48 1   
    52    32    49 1   
    53    33    49 1   
@<TRIPOS>SUBSTRUCTURE
     1 KR1         1 TEMP              0 ****  ****    0 ROOT
