@<TRIPOS>MOLECULE
KR1
   51    53     1     0     0
SMALL
No Charge or Current Charge


@<TRIPOS>ATOM
      1 F1           2.7850    -1.9280    -2.3540 f          1 KR1      -0.221200
      2 N1          -0.9040    -1.9490    -4.0280 n1         1 KR1      -0.426000
      3 O1          -0.7240     0.2470     2.7630 o          1 KR1      -0.492100
      4 C2          -2.3090    -2.8450    -0.9170 ca         1 KR1      -0.041000
      5 N2           0.9320     3.7870    -0.2980 ns         1 KR1      -0.465500
      6 O2          -0.9810     4.4770    -1.2010 o          1 KR1      -0.516000
      7 C3          -1.5070    -1.8470    -1.4970 ca         1 KR1      -0.012000
      8 N3           1.1790     1.8520     0.9960 n          1 KR1      -0.300000
      9 C4          -1.0220    -0.7890    -0.7070 ca         1 KR1      -0.029000
     10 C5          -1.3370    -0.7190     0.6700 ca         1 KR1      -0.172600
     11 N5           2.1490    -2.9640    -0.4290 nb         1 KR1      -0.786000
     12 C6          -2.1340    -1.7360     1.2400 ca         1 KR1      -0.046000
     13 C7          -2.6220    -2.7950     0.4530 ca         1 KR1      -0.097300
     14 C8          -0.7900     0.3890     1.5460 c          1 KR1       0.595900
     15 C9          -0.1970     1.5730     0.8410 cc         1 KR1       0.018400
     16 C10         -3.4870    -3.8780     1.0810 c3         1 KR1      -0.049800
     17 C11         -1.0110     2.4390     0.1030 cd         1 KR1      -0.227400
     18 C12         -0.3940     3.6450    -0.5300 c          1 KR1       0.590200
     19 C13          1.7630     2.9930     0.4120 c          1 KR1       0.618000
     20 C14         -2.5310     2.2860    -0.0560 c3         1 KR1       0.008500
     21 C15         -3.3160     3.4140     0.6520 c3         1 KR1      -0.088600
     22 C16         -2.9810     2.0910    -1.5240 c3         1 KR1      -0.088600
     23 C17          2.0870     0.8720     1.6630 c3         1 KR1       0.132300
     24 C18          2.1390    -0.4710     0.9400 ca         1 KR1      -0.016300
     25 C19          1.8080    -1.6750     1.5850 ca         1 KR1      -0.257000
     26 C20          1.8360    -2.8590     0.8470 ca         1 KR1       0.656900
     27 C21          2.4740    -1.8140    -1.0460 ca         1 KR1       0.623200
     28 C22          2.4830    -0.5590    -0.4200 ca         1 KR1      -0.253000
     29 H2          -2.6850    -3.6630    -1.5290 ha         1 KR1       0.132000
     30 HN2          1.3610     4.5980    -0.7140 hn         1 KR1       0.348500
     31 H4          -0.3890    -0.0360    -1.1720 ha         1 KR1       0.141000
     32 HN4          1.3590    -4.7520     0.6430 hn         1 KR1       0.494000
     33 HN4A         0.9060    -4.0630     2.1500 hn         1 KR1       0.494000
     34 H6          -2.3790    -1.7040     2.3010 ha         1 KR1       0.134000
     35 H10         -4.5470    -3.5990     1.0470 hc         1 KR1       0.049033
     36 H10A        -3.3750    -4.8350     0.5570 hc         1 KR1       0.049033
     37 H10B        -3.2190    -4.0460     2.1310 hc         1 KR1       0.049033
     38 H14         -2.8610     1.3770     0.4550 hc         1 KR1       0.039700
     39 H15         -3.1770     4.3810     0.1580 hc         1 KR1       0.043033
     40 H15A        -4.3900     3.1910     0.6530 hc         1 KR1       0.043033
     41 H15B        -2.9910     3.5100     1.6950 hc         1 KR1       0.043033
     42 H16         -2.8700     3.0090    -2.1110 hc         1 KR1       0.043033
     43 H16A        -2.3970     1.3020    -2.0110 hc         1 KR1       0.043033
     44 H16B        -4.0370     1.7990    -1.5630 hc         1 KR1       0.043033
     45 H17          3.1110     1.2600     1.7300 h1         1 KR1       0.092200
     46 H17A         1.7580     0.7260     2.7000 h1         1 KR1       0.092200
     47 H19          1.5260    -1.6910     2.6330 ha         1 KR1       0.130000
     48 H22          2.7480     0.3240    -0.9930 ha         1 KR1       0.152000
     49 N4           1.5270    -4.0480     1.3490 nv         1 KR1      -1.074900
     50 O3           2.9450     3.2770     0.5060 o          1 KR1      -0.550000
     51 C1          -1.1750    -1.9100    -2.8930 cg         1 KR1       0.313000
@<TRIPOS>BOND
     1     1    27 1   
     2     2    51 3   
     3     3    14 2   
     4     4     7 ar  
     5     4    13 ar  
     6     4    29 1   
     7     5    18 1   
     8     5    19 1   
     9     5    30 1   
    10     6    18 2   
    11     7     9 ar  
    12     7    51 1   
    13     8    15 1   
    14     8    19 1   
    15     8    23 1   
    16     9    10 ar  
    17     9    31 1   
    18    10    12 ar  
    19    10    14 1   
    20    11    26 ar  
    21    11    27 ar  
    22    12    13 ar  
    23    12    34 1   
    24    13    16 1   
    25    14    15 1   
    26    15    17 2   
    27    16    35 1   
    28    16    36 1   
    29    16    37 1   
    30    17    18 1   
    31    17    20 1   
    32    19    50 2   
    33    20    21 1   
    34    20    22 1   
    35    20    38 1   
    36    21    39 1   
    37    21    40 1   
    38    21    41 1   
    39    22    42 1   
    40    22    43 1   
    41    22    44 1   
    42    23    24 1   
    43    23    45 1   
    44    23    46 1   
    45    24    25 ar  
    46    24    28 ar  
    47    25    26 ar  
    48    25    47 1   
    49    26    49 1   
    50    27    28 ar  
    51    28    48 1   
    52    32    49 1   
    53    33    49 1   
@<TRIPOS>SUBSTRUCTURE
     1 KR1         1 TEMP              0 ****  ****    0 ROOT
