@<TRIPOS>MOLECULE
KR2
   54    56     1     0     0
SMALL
abcg2


@<TRIPOS>ATOM
      1 CAY         -3.6950    -5.4360    -0.9860 ca         1 KR2      -0.078000
      2 CBC         -4.5050    -5.8430    -2.0350 ca         1 KR2      -0.112000
      3 CBB         -4.2510    -5.3950    -3.3250 ca         1 KR2      -0.091000
      4 CBA         -3.1830    -4.5400    -3.5620 ca         1 KR2      -0.112000
      5 CAZ         -2.3830    -4.1160    -2.5100 ca         1 KR2      -0.078000
      6 CAX         -2.6450    -4.5510    -1.2150 ca         1 KR2      -0.137600
      7 CAW         -1.7390    -4.2070    -0.0740 c          1 KR2       0.619700
      8 OAA         -1.0550    -5.0610     0.4570 o          1 KR2      -0.572100
      9 NAR         -1.7370    -2.9140     0.3560 n          1 KR2      -0.276400
     10 CAV         -0.8620    -2.4640     1.4340 c3         1 KR2       0.105000
     11 CDD          0.4060    -1.8060     0.9240 c3         1 KR2      -0.096400
     12 CNN          0.1660    -0.6430    -0.0310 c3         1 KR2      -0.069400
     13 CAT         -0.5410    -1.0420    -1.3280 c3         1 KR2      -0.086400
     14 CAS         -2.0570    -1.0910    -1.2550 c3         1 KR2       0.110000
     15 NAQ         -2.5660    -1.9860    -0.2130 n          1 KR2      -0.278400
     16 CAO         -3.8660    -1.8810     0.1910 c          1 KR2       0.615100
     17 OAP         -4.6290    -1.1550    -0.4230 o          1 KR2      -0.591100
     18 CAN         -4.2890    -2.6780     1.4040 c3         1 KR2      -0.195400
     19 CAL         -5.5470    -2.1540     2.1170 c3         1 KR2       0.186500
     20 NAM         -6.7960    -2.3040     1.3920 n8         1 KR2      -0.997200
     21 CAK         -5.4260    -0.6960     2.5910 c3         1 KR2      -0.029100
     22 CAG         -4.1780    -0.4310     3.3840 ca         1 KR2      -0.102300
     23 CAH         -4.0380    -0.9530     4.6700 ca         1 KR2      -0.110000
     24 CAC         -2.8930    -0.7420     5.4050 ca         1 KR2       0.118000
     25 FAB         -2.7760    -1.2470     6.6370 f          1 KR2      -0.156000
     26 CAD         -1.8510     0.0030     4.8790 ca         1 KR2       0.156000
     27 FAI         -0.7500     0.1990     5.6050 f          1 KR2      -0.153000
     28 CAE         -1.9520     0.5410     3.6150 ca         1 KR2      -0.180000
     29 CAF         -3.1140     0.3120     2.8970 ca         1 KR2       0.180000
     30 FAJ         -3.1860     0.8390     1.6640 f          1 KR2      -0.165000
     31 HAM1        -6.9780    -3.2860     1.2280 hn         1 KR2       0.408000
     32 HAM2        -6.7110    -1.8750     0.4790 hn         1 KR2       0.408000
     33 HAL         -5.6310    -2.7730     3.0150 h1         1 KR2       0.050700
     34 HAN1        -3.4720    -2.7490     2.1250 hc         1 KR2       0.069200
     35 HAN2        -4.4870    -3.7090     1.0950 hc         1 KR2       0.069200
     36 HAZ         -1.5420    -3.4650    -2.7120 ha         1 KR2       0.118000
     37 HBA         -2.9690    -4.2010    -4.5670 ha         1 KR2       0.117500
     38 HBB         -4.8790    -5.7180    -4.1450 ha         1 KR2       0.117000
     39 HBC         -5.3300    -6.5170    -1.8470 ha         1 KR2       0.117500
     40 HAY         -3.8880    -5.8040     0.0150 ha         1 KR2       0.118000
     41 HAV1        -0.6240    -3.3180     2.0640 h1         1 KR2       0.062200
     42 HAV2        -1.4360    -1.7660     2.0460 h1         1 KR2       0.062200
     43 HDD1         1.0280    -2.5590     0.4300 hc         1 KR2       0.053200
     44 HDD2         0.9720    -1.4590     1.7920 hc         1 KR2       0.053200
     45 HNN1        -0.4000     0.1500     0.4710 hc         1 KR2       0.043700
     46 HNN2         1.1340    -0.2080    -0.2850 hc         1 KR2       0.043700
     47 HAT1        -0.3170    -0.3070    -2.1040 hc         1 KR2       0.048700
     48 HAT2        -0.1320    -1.9890    -1.6940 hc         1 KR2       0.048700
     49 HAS1        -2.4310    -0.0890    -1.0400 h1         1 KR2       0.058700
     50 HAS2        -2.4660    -1.3810    -2.2260 h1         1 KR2       0.058700
     51 HAK1        -5.4890    -0.0210     1.7390 hc         1 KR2       0.077700
     52 HAK2        -6.2940    -0.4870     3.2200 hc         1 KR2       0.077700
     53 HAH         -4.8420    -1.5300     5.1080 ha         1 KR2       0.141000
     54 HAE         -1.1430     1.1250     3.1960 ha         1 KR2       0.152000
@<TRIPOS>BOND
     1     1     2 ar  
     2     1     6 ar  
     3     1    40 1   
     4     2     3 ar  
     5     2    39 1   
     6     3     4 ar  
     7     3    38 1   
     8     4     5 ar  
     9     4    37 1   
    10     5     6 ar  
    11     5    36 1   
    12     6     7 1   
    13     7     8 2   
    14     7     9 1   
    15     9    10 1   
    16     9    15 1   
    17    10    11 1   
    18    10    41 1   
    19    10    42 1   
    20    11    12 1   
    21    11    43 1   
    22    11    44 1   
    23    12    13 1   
    24    12    45 1   
    25    12    46 1   
    26    13    14 1   
    27    13    47 1   
    28    13    48 1   
    29    14    15 1   
    30    14    49 1   
    31    14    50 1   
    32    15    16 1   
    33    16    17 2   
    34    16    18 1   
    35    18    19 1   
    36    18    34 1   
    37    18    35 1   
    38    19    20 1   
    39    19    21 1   
    40    19    33 1   
    41    20    31 1   
    42    20    32 1   
    43    21    22 1   
    44    21    51 1   
    45    21    52 1   
    46    22    23 ar  
    47    22    29 ar  
    48    23    24 ar  
    49    23    53 1   
    50    24    25 1   
    51    24    26 ar  
    52    26    27 1   
    53    26    28 ar  
    54    28    29 ar  
    55    28    54 1   
    56    29    30 1   
@<TRIPOS>SUBSTRUCTURE
     1 KR2         1 TEMP              0 ****  ****    0 ROOT
