@<TRIPOS>MOLECULE
KR2
   54    56     1     0     0
SMALL
No Charge or Current Charge


@<TRIPOS>ATOM
      1 CAY         -3.6350    -5.7500    -0.9070 ca         1 KR2      -0.078000
      2 CBC         -4.4120    -6.1570    -2.0050 ca         1 KR2      -0.112000
      3 CBB         -4.2950    -5.4920    -3.2360 ca         1 KR2      -0.091000
      4 CBA         -3.3880    -4.4290    -3.3700 ca         1 KR2      -0.112000
      5 CAZ         -2.6120    -4.0200    -2.2720 ca         1 KR2      -0.078000
      6 CAX         -2.7460    -4.6590    -1.0190 ca         1 KR2      -0.137600
      7 CAW         -1.9200    -4.2550     0.1850 c          1 KR2       0.619700
      8 OAA         -1.4050    -5.1230     0.8800 o          1 KR2      -0.572100
      9 NAR         -1.7280    -2.8720     0.4910 n          1 KR2      -0.276400
     10 CAV         -0.9070    -2.4120     1.6240 c3         1 KR2       0.105000
     11 CDD          0.4240    -1.7900     1.1610 c3         1 KR2      -0.096400
     12 CNN          0.2780    -0.5680     0.2200 c3         1 KR2      -0.069400
     13 CAT         -0.4350    -0.8580    -1.1280 c3         1 KR2      -0.086400
     14 CAS         -1.9840    -0.8720    -1.0570 c3         1 KR2       0.110000
     15 NAQ         -2.5870    -1.8730    -0.1460 n          1 KR2      -0.278400
     16 CAO         -3.9910    -1.9120     0.0930 c          1 KR2       0.615100
     17 OAP         -4.7470    -1.2600    -0.6170 o          1 KR2      -0.591100
     18 CAN         -4.5590    -2.7890     1.2310 c3         1 KR2      -0.195400
     19 CAL         -5.6980    -2.1430     2.0510 c3         1 KR2       0.186500
     20 NAM         -6.9610    -2.2180     1.3020 n8         1 KR2      -0.997200
     21 CAK         -5.4250    -0.6820     2.5070 c3         1 KR2      -0.029100
     22 CAG         -4.0560    -0.4620     3.1630 ca         1 KR2      -0.102300
     23 CAH         -3.6860    -1.2300     4.2900 ca         1 KR2      -0.110000
     24 CAC         -2.4440    -1.0230     4.9130 ca         1 KR2       0.118000
     25 FAB         -2.1040    -1.7730     5.9870 f          1 KR2      -0.156000
     26 CAD         -1.5620    -0.0420     4.4240 ca         1 KR2       0.156000
     27 FAI         -0.3630     0.1580     5.0180 f          1 KR2      -0.153000
     28 CAE         -1.9190     0.7310     3.3100 ca         1 KR2      -0.180000
     29 CAF         -3.1570     0.5220     2.6820 ca         1 KR2       0.180000
     30 FAJ         -3.4720     1.2770     1.6070 f          1 KR2      -0.165000
     31 HAM1        -7.1640    -3.2010     1.0840 hn         1 KR2       0.408000
     32 HAM2        -6.8000    -1.8010     0.3760 hn         1 KR2       0.408000
     33 HAL         -5.8340    -2.7520     2.9570 h1         1 KR2       0.050700
     34 HAN1        -3.7620    -3.0860     1.9190 hc         1 KR2       0.069200
     35 HAN2        -4.9020    -3.7300     0.7870 hc         1 KR2       0.069200
     36 HAZ         -1.8830    -3.2280    -2.4100 ha         1 KR2       0.118000
     37 HBA         -3.2770    -3.9280    -4.3290 ha         1 KR2       0.117500
     38 HBB         -4.8940    -5.8090    -4.0870 ha         1 KR2       0.117000
     39 HBC         -5.1050    -6.9900    -1.9020 ha         1 KR2       0.117500
     40 HAY         -3.7360    -6.2750     0.0410 ha         1 KR2       0.118000
     41 HAV1        -0.7010    -3.2440     2.3090 h1         1 KR2       0.062200
     42 HAV2        -1.4790    -1.6660     2.1830 h1         1 KR2       0.062200
     43 HDD1         1.0210    -2.5620     0.6600 hc         1 KR2       0.053200
     44 HDD2         0.9910    -1.4850     2.0490 hc         1 KR2       0.053200
     45 HNN1        -0.2430     0.2430     0.7440 hc         1 KR2       0.043700
     46 HNN2         1.2860    -0.1930     0.0000 hc         1 KR2       0.043700
     47 HAT1        -0.1450    -0.0790    -1.8430 hc         1 KR2       0.048700
     48 HAT2        -0.0700    -1.8040    -1.5440 hc         1 KR2       0.048700
     49 HAS1        -2.3220     0.1220    -0.7340 h1         1 KR2       0.058700
     50 HAS2        -2.3840    -1.0320    -2.0660 h1         1 KR2       0.058700
     51 HAK1        -5.5600    -0.0130     1.6510 hc         1 KR2       0.077700
     52 HAK2        -6.2090    -0.3950     3.2190 hc         1 KR2       0.077700
     53 HAH         -4.3610    -1.9830     4.6900 ha         1 KR2       0.141000
     54 HAE         -1.2380     1.4890     2.9320 ha         1 KR2       0.152000
@<TRIPOS>BOND
     1     1     2 ar  
     2     1     6 ar  
     3     1    40 1   
     4     2     3 ar  
     5     2    39 1   
     6     3     4 ar  
     7     3    38 1   
     8     4     5 ar  
     9     4    37 1   
    10     5     6 ar  
    11     5    36 1   
    12     6     7 1   
    13     7     8 2   
    14     7     9 1   
    15     9    10 1   
    16     9    15 1   
    17    10    11 1   
    18    10    41 1   
    19    10    42 1   
    20    11    12 1   
    21    11    43 1   
    22    11    44 1   
    23    12    13 1   
    24    12    45 1   
    25    12    46 1   
    26    13    14 1   
    27    13    47 1   
    28    13    48 1   
    29    14    15 1   
    30    14    49 1   
    31    14    50 1   
    32    15    16 1   
    33    16    17 2   
    34    16    18 1   
    35    18    19 1   
    36    18    34 1   
    37    18    35 1   
    38    19    20 1   
    39    19    21 1   
    40    19    33 1   
    41    20    31 1   
    42    20    32 1   
    43    21    22 1   
    44    21    51 1   
    45    21    52 1   
    46    22    23 ar  
    47    22    29 ar  
    48    23    24 ar  
    49    23    53 1   
    50    24    25 1   
    51    24    26 ar  
    52    26    27 1   
    53    26    28 ar  
    54    28    29 ar  
    55    28    54 1   
    56    29    30 1   
@<TRIPOS>SUBSTRUCTURE
     1 KR2         1 TEMP              0 ****  ****    0 ROOT
