@<TRIPOS>MOLECULE
KR3
   32    31     1     0     0
SMALL
No Charge or Current Charge


@<TRIPOS>ATOM
      1 N          197.6200   176.2280   192.3680 n8         1 KR3      -1.001200
      2 CA         197.4880   177.1760   193.5360 c3         1 KR3       0.011500
      3 CB         197.7350   178.6450   193.0940 c3         1 KR3      -0.048400
      4 C5         201.6330   186.6490   191.2770 c3         1 KR3      -0.098100
      5 C          196.1390   177.0750   194.3630 c          1 KR3       0.693000
      6 C4         201.5350   185.4880   192.2800 c3         1 KR3       0.186600
      7 CG         199.1700   178.9300   192.5840 c3         1 KR3      -0.070400
      8 CD         199.3950   180.4130   192.2120 c3         1 KR3      -0.105400
      9 CE         200.8230   180.6930   191.7030 c3         1 KR3       0.114000
     10 NZ         201.0140   182.0960   191.3350 ns         1 KR3      -0.497900
     11 O          196.2110   176.8650   195.5660 o          1 KR3      -0.734500
     12 C1         201.2020   183.1180   192.2210 c          1 KR3       0.635100
     13 O2         201.2680   182.9970   193.4340 o          1 KR3      -0.543000
     14 O3         201.3220   184.2830   191.5270 os         1 KR3      -0.477100
     15 OXT        195.0770   177.0950   193.7530 o          1 KR3      -0.734500
     16 H1         197.5040   175.2650   192.7050 hn         1 KR3       0.380000
     17 H          196.8060   176.3590   191.7550 hn         1 KR3       0.380000
     18 H4         198.2910   176.9150   194.2390 h1         1 KR3       0.036700
     19 H5         197.5400   179.3000   193.9520 hc         1 KR3       0.038700
     20 H6         197.0080   178.9220   192.3200 hc         1 KR3       0.038700
     21 H7         201.7970   187.5950   191.8070 hc         1 KR3       0.041700
     22 H8         202.4710   186.4930   190.5860 hc         1 KR3       0.041700
     23 H9         200.7090   186.7360   190.6950 hc         1 KR3       0.041700
     24 H10        202.4640   185.4280   192.8630 h1         1 KR3       0.046200
     25 H11        200.7010   185.6720   192.9710 h1         1 KR3       0.046200
     26 H12        199.8910   178.6410   193.3590 hc         1 KR3       0.036200
     27 H13        199.3770   178.3090   191.7040 hc         1 KR3       0.036200
     28 H14        199.1940   181.0390   193.0900 hc         1 KR3       0.043700
     29 H15        198.6750   180.7050   191.4380 hc         1 KR3       0.043700
     30 H16        201.0260   180.0720   190.8200 h1         1 KR3       0.050700
     31 H17        201.5530   180.4260   192.4790 h1         1 KR3       0.050700
     32 H18        200.9890   182.3570   190.3580 hn         1 KR3       0.317500
@<TRIPOS>BOND
     1     1     2 1   
     2     1    16 1   
     3     1    17 1   
     4     2     3 1   
     5     2     5 1   
     6     2    18 1   
     7     3     7 1   
     8     3    19 1   
     9     3    20 1   
    10     4     6 1   
    11     4    21 1   
    12     4    22 1   
    13     4    23 1   
    14     5    11 1   
    15     5    15 1   
    16     6    14 1   
    17     6    24 1   
    18     6    25 1   
    19     7     8 1   
    20     7    26 1   
    21     7    27 1   
    22     8     9 1   
    23     8    28 1   
    24     8    29 1   
    25     9    10 1   
    26     9    30 1   
    27     9    31 1   
    28    10    12 1   
    29    10    32 1   
    30    12    13 2   
    31    12    14 1   
@<TRIPOS>SUBSTRUCTURE
     1 KR3         1 TEMP              0 ****  ****    0 ROOT
