@<TRIPOS>MOLECULE
KR3
   32    31     1     0     0
SMALL
abcg2


@<TRIPOS>ATOM
      1 N          197.7000   176.3550   192.3700 n8         1 KR3      -1.001200
      2 CA         197.5250   177.2140   193.5330 c3         1 KR3       0.011500
      3 CB         197.7610   178.6750   193.1420 c3         1 KR3      -0.048400
      4 C5         201.5950   186.5870   191.3410 c3         1 KR3      -0.098100
      5 C          196.1540   177.0870   194.2510 c          1 KR3       0.693000
      6 C4         201.5610   185.4050   192.2810 c3         1 KR3       0.186600
      7 CG         199.1580   178.9610   192.6060 c3         1 KR3      -0.070400
      8 CD         199.3540   180.4230   192.2290 c3         1 KR3      -0.105400
      9 CE         200.7640   180.6990   191.7200 c3         1 KR3       0.114000
     10 NZ         200.9780   182.0610   191.2850 ns         1 KR3      -0.497900
     11 O          196.0830   177.6070   195.3850 o          1 KR3      -0.734500
     12 C1         201.2210   183.0660   192.1440 c          1 KR3       0.635100
     13 O2         201.3770   182.9390   193.3430 o          1 KR3      -0.543000
     14 O3         201.2910   184.2380   191.5010 os         1 KR3      -0.477100
     15 OXT        195.2360   176.5050   193.6390 o          1 KR3      -0.734500
     16 H1         197.6610   175.3880   192.6730 hn         1 KR3       0.380000
     17 H          196.8800   176.4630   191.7840 hn         1 KR3       0.380000
     18 H4         198.3010   176.9440   194.2600 h1         1 KR3       0.036700
     19 H5         197.5770   179.3050   194.0150 hc         1 KR3       0.038700
     20 H6         197.0170   178.9690   192.3910 hc         1 KR3       0.038700
     21 H7         201.7990   187.4930   191.9120 hc         1 KR3       0.041700
     22 H8         202.3810   186.4810   190.5930 hc         1 KR3       0.041700
     23 H9         200.6420   186.7220   190.8290 hc         1 KR3       0.041700
     24 H10        202.5180   185.3000   192.7970 h1         1 KR3       0.046200
     25 H11        200.7860   185.5390   193.0390 h1         1 KR3       0.046200
     26 H12        199.8980   178.6770   193.3630 hc         1 KR3       0.036200
     27 H13        199.3550   178.3300   191.7350 hc         1 KR3       0.036200
     28 H14        199.1510   181.0610   193.0950 hc         1 KR3       0.043700
     29 H15        198.6310   180.7040   191.4570 hc         1 KR3       0.043700
     30 H16        200.9820   180.0510   190.8700 h1         1 KR3       0.050700
     31 H17        201.4950   180.4500   192.4920 h1         1 KR3       0.050700
     32 H18        200.7920   182.2860   190.3210 hn         1 KR3       0.317500
@<TRIPOS>BOND
     1     1     2 1   
     2     1    16 1   
     3     1    17 1   
     4     2     3 1   
     5     2     5 1   
     6     2    18 1   
     7     3     7 1   
     8     3    19 1   
     9     3    20 1   
    10     4     6 1   
    11     4    21 1   
    12     4    22 1   
    13     4    23 1   
    14     5    11 1   
    15     5    15 1   
    16     6    14 1   
    17     6    24 1   
    18     6    25 1   
    19     7     8 1   
    20     7    26 1   
    21     7    27 1   
    22     8     9 1   
    23     8    28 1   
    24     8    29 1   
    25     9    10 1   
    26     9    30 1   
    27     9    31 1   
    28    10    12 1   
    29    10    32 1   
    30    12    13 2   
    31    12    14 1   
@<TRIPOS>SUBSTRUCTURE
     1 KR3         1 TEMP              0 ****  ****    0 ROOT
