@<TRIPOS>MOLECULE
KR4
   44    46     1     0     0
SMALL
abcg2


@<TRIPOS>ATOM
      1 C4          -1.0470    -1.8120     0.1190 ca         1 KR4       0.413900
      2 C5           1.4330    -1.8450    -0.1460 ca         1 KR4       0.304000
      3 C6           1.7880    -0.5730     0.3010 ca         1 KR4      -0.137500
      4 C7           3.0940    -0.1290     0.1460 ca         1 KR4      -0.083000
      5 C8           4.0780    -0.9200    -0.4380 ca         1 KR4      -0.101300
      6 C10          2.4110    -2.6480    -0.7330 ca         1 KR4      -0.137500
      7 C9           3.7100    -2.1920    -0.8700 ca         1 KR4      -0.083000
      8 C11          5.4990    -0.4440    -0.5370 c3         1 KR4      -0.033100
      9 C18         -1.4530     2.2760    -0.0370 ca         1 KR4      -0.055000
     10 C3          -2.3830    -0.0150     0.2210 cp         1 KR4       0.257500
     11 C2          -3.2650    -2.0770     0.3690 ca         1 KR4       0.206300
     12 C1          -4.4630    -2.9650     0.4730 c3         1 KR4      -0.122700
     13 C17         -1.6240     3.6490    -0.0490 ca         1 KR4       0.100000
     14 C16         -2.8650     4.2270     0.1720 ca         1 KR4      -0.080000
     15 C15         -3.9540     3.4010     0.4080 ca         1 KR4      -0.121000
     16 C14         -3.8050     2.0230     0.4220 ca         1 KR4      -0.058000
     17 C13         -2.5530     1.4530     0.2010 cp         1 KR4      -0.155500
     18 N           -3.4710    -0.7600     0.3620 nb         1 KR4      -0.256000
     19 N1          -1.1530    -0.4870     0.0990 nb         1 KR4      -0.275000
     20 N2          -2.0840    -2.6500     0.2480 nb         1 KR4      -0.286000
     21 C           -5.0000    -3.3110    -0.9170 c3         1 KR4      -0.086100
     22 N3           0.1570    -2.4020    -0.0030 nu         1 KR4      -0.921900
     23 O            7.5890    -0.2980     0.6050 oh         1 KR4      -0.663000
     24 H1           1.0610     0.0700     0.7720 ha         1 KR4       0.128000
     25 H2           3.3490     0.8620     0.5020 ha         1 KR4       0.116000
     26 H3           2.1510    -3.6380    -1.0890 ha         1 KR4       0.128000
     27 H4           4.4480    -2.8390    -1.3300 ha         1 KR4       0.116000
     28 H5           5.7540    -0.2870     1.5890 h1         1 KR4       0.019700
     29 H6           6.2300    -1.8450     0.9160 h1         1 KR4       0.019700
     30 H7           5.9970    -0.9230    -1.3850 hc         1 KR4       0.061200
     31 H8           5.5250     0.6340    -0.7140 hc         1 KR4       0.061200
     32 H9          -0.4800     1.8420    -0.2160 ha         1 KR4       0.150000
     33 H10         -4.1870    -3.8780     1.0010 hc         1 KR4       0.067700
     34 H11         -5.2350    -2.4570     1.0510 hc         1 KR4       0.067700
     35 H12         -2.9820     5.3020     0.1600 ha         1 KR4       0.130000
     36 H13         -4.9270     3.8400     0.5840 ha         1 KR4       0.121000
     37 H14         -4.6590     1.3870     0.6080 ha         1 KR4       0.141000
     38 H15         -5.8650    -3.9680    -0.8350 hc         1 KR4       0.042033
     39 H16         -5.3100    -2.4150    -1.4540 hc         1 KR4       0.042033
     40 H17         -4.2450    -3.8220    -1.5150 hc         1 KR4       0.042033
     41 H18          0.1090    -3.4090    -0.0610 hn         1 KR4       0.514000
     42 H19          8.0800    -0.5650     1.3880 ho         1 KR4       0.444000
     43 CL          -0.2530     4.6660    -0.3490 cl         1 KR4      -0.201000
     44 C12          6.2640    -0.7620     0.7400 c3         1 KR4       0.163600
@<TRIPOS>BOND
     1     1    19 ar  
     2     1    20 ar  
     3     1    22 1   
     4     2     3 ar  
     5     2     6 ar  
     6     2    22 1   
     7     3     4 ar  
     8     3    24 1   
     9     4     5 ar  
    10     4    25 1   
    11     5     7 ar  
    12     5     8 1   
    13     6     7 ar  
    14     6    26 1   
    15     7    27 1   
    16     8    30 1   
    17     8    31 1   
    18     8    44 1   
    19     9    13 ar  
    20     9    17 ar  
    21     9    32 1   
    22    10    17 1   
    23    10    18 ar  
    24    10    19 ar  
    25    11    12 1   
    26    11    18 ar  
    27    11    20 ar  
    28    12    21 1   
    29    12    33 1   
    30    12    34 1   
    31    13    14 ar  
    32    13    43 1   
    33    14    15 ar  
    34    14    35 1   
    35    15    16 ar  
    36    15    36 1   
    37    16    17 ar  
    38    16    37 1   
    39    21    38 1   
    40    21    39 1   
    41    21    40 1   
    42    22    41 1   
    43    23    42 1   
    44    23    44 1   
    45    28    44 1   
    46    29    44 1   
@<TRIPOS>SUBSTRUCTURE
     1 KR4         1 TEMP              0 ****  ****    0 ROOT
