@<TRIPOS>MOLECULE
KR4
   44    46     1     0     0
SMALL
No Charge or Current Charge


@<TRIPOS>ATOM
      1 C4          -1.0620    -1.7950     0.0870 ca         1 KR4       0.413900
      2 C5           1.4940    -1.8560    -0.1620 ca         1 KR4       0.304000
      3 C6           1.8720    -0.6430     0.4450 ca         1 KR4      -0.137500
      4 C7           3.1960    -0.1770     0.3470 ca         1 KR4      -0.083000
      5 C8           4.1610    -0.9240    -0.3530 ca         1 KR4      -0.101300
      6 C10          2.4660    -2.6070    -0.8450 ca         1 KR4      -0.137500
      7 C9           3.7900    -2.1450    -0.9450 ca         1 KR4      -0.083000
      8 C11          5.5970    -0.4230    -0.4550 c3         1 KR4      -0.033100
      9 C18         -1.5480     2.4080    -0.0320 ca         1 KR4      -0.055000
     10 C3          -2.4440     0.0230     0.1780 cp         1 KR4       0.257500
     11 C2          -3.2900    -2.0990     0.3610 ca         1 KR4       0.206300
     12 C1          -4.4850    -3.0250     0.5350 c3         1 KR4      -0.122700
     13 C17         -1.7360     3.7990    -0.0610 ca         1 KR4       0.100000
     14 C16         -3.0210     4.3430     0.0860 ca         1 KR4      -0.080000
     15 C15         -4.1210     3.4900     0.2610 ca         1 KR4      -0.121000
     16 C14         -3.9370     2.0960     0.2910 ca         1 KR4      -0.058000
     17 C13         -2.6450     1.5160     0.1460 cp         1 KR4      -0.155500
     18 N           -3.5250    -0.7710     0.3430 nb         1 KR4      -0.256000
     19 N1          -1.1910    -0.4580     0.0400 nb         1 KR4      -0.275000
     20 N2          -2.0720    -2.6650     0.2330 nb         1 KR4      -0.286000
     21 C           -5.1380    -3.4040    -0.8100 c3         1 KR4      -0.086100
     22 N3           0.1910    -2.3620    -0.0800 nu         1 KR4      -0.921900
     23 O            7.8050    -0.4210     0.5760 oh         1 KR4      -0.663000
     24 H1           1.1540    -0.0610     1.0120 ha         1 KR4       0.128000
     25 H2           3.4710     0.7620     0.8240 ha         1 KR4       0.116000
     26 H3           2.1950    -3.5510    -1.3090 ha         1 KR4       0.128000
     27 H4           4.5270    -2.7380    -1.4830 ha         1 KR4       0.116000
     28 H5           6.0310    -0.5690     1.6630 h1         1 KR4       0.019700
     29 H6           6.4690    -2.0150     0.7280 h1         1 KR4       0.019700
     30 H7           6.0460    -0.7540    -1.3990 hc         1 KR4       0.061200
     31 H8           5.6130     0.6740    -0.4760 hc         1 KR4       0.061200
     32 H9          -0.5380     2.0250    -0.1500 ha         1 KR4       0.150000
     33 H10         -4.1800    -3.9420     1.0540 hc         1 KR4       0.067700
     34 H11         -5.2390    -2.5500     1.1750 hc         1 KR4       0.067700
     35 H12         -3.1620     5.4210     0.0620 ha         1 KR4       0.130000
     36 H13         -5.1190     3.9080     0.3750 ha         1 KR4       0.121000
     37 H14         -4.8130     1.4650     0.4300 ha         1 KR4       0.141000
     38 H15         -5.9940    -4.0710    -0.6470 hc         1 KR4       0.042033
     39 H16         -5.4950    -2.5090    -1.3340 hc         1 KR4       0.042033
     40 H17         -4.4190    -3.9200    -1.4580 hc         1 KR4       0.042033
     41 H18          0.1310    -3.3650    -0.2540 hn         1 KR4       0.514000
     42 H19          8.3180    -0.7610     1.3440 ho         1 KR4       0.444000
     43 Cl          -0.3540     4.8660    -0.2820 cl         1 KR4      -0.201000
     44 C12          6.4680    -0.9160     0.7170 c3         1 KR4       0.163600
@<TRIPOS>BOND
     1     1    19 ar  
     2     1    20 ar  
     3     1    22 1   
     4     2     3 ar  
     5     2     6 ar  
     6     2    22 1   
     7     3     4 ar  
     8     3    24 1   
     9     4     5 ar  
    10     4    25 1   
    11     5     7 ar  
    12     5     8 1   
    13     6     7 ar  
    14     6    26 1   
    15     7    27 1   
    16     8    30 1   
    17     8    31 1   
    18     8    44 1   
    19     9    13 ar  
    20     9    17 ar  
    21     9    32 1   
    22    10    17 1   
    23    10    18 ar  
    24    10    19 ar  
    25    11    12 1   
    26    11    18 ar  
    27    11    20 ar  
    28    12    21 1   
    29    12    33 1   
    30    12    34 1   
    31    13    14 ar  
    32    13    43 1   
    33    14    15 ar  
    34    14    35 1   
    35    15    16 ar  
    36    15    36 1   
    37    16    17 ar  
    38    16    37 1   
    39    21    38 1   
    40    21    39 1   
    41    21    40 1   
    42    22    41 1   
    43    23    42 1   
    44    23    44 1   
    45    28    44 1   
    46    29    44 1   
@<TRIPOS>SUBSTRUCTURE
     1 KR4         1 TEMP              0 ****  ****    0 ROOT
