@<TRIPOS>MOLECULE
KR5
   40    41     1     0     0
SMALL
bcc


@<TRIPOS>ATOM
      1 O25          3.1050    -1.9910     0.0910 o          1 KR5      -0.536100
      2 C22          3.3710    -0.8150     0.0810 c          1 KR5       0.601900
      3 N27          4.6960    -0.3860     0.0410 n          1 KR5       0.061300
      4 C29          5.8410    -1.1510    -0.0230 cc         1 KR5      -0.026600
      5 C33          5.8990    -2.6350    -0.0680 c3         1 KR5      -0.030800
      6 C30          6.8690    -0.2570    -0.0450 cd         1 KR5      -0.314300
      7 C31          6.2730     1.0310     0.0070 cd         1 KR5       0.361600
      8 C37          6.9660     2.3470     0.0060 c3         1 KR5      -0.128400
      9 N28          4.9710     0.9370     0.0580 nc         1 KR5      -0.526800
     10 C19          2.3350     0.2750     0.1050 c3         1 KR5      -0.168400
     11 C18          0.9270    -0.2960     0.1120 c3         1 KR5       0.232800
     12 N17         -0.0230     0.7900     0.1260 nu         1 KR5      -0.780600
     13 C8          -1.3600     0.6180     0.0660 ca         1 KR5       0.257600
     14 C7          -1.9450    -0.6640     0.0940 ca         1 KR5      -0.244500
     15 C6          -3.3140    -0.8110     0.0250 ca         1 KR5       0.029000
     16 C9          -2.2130     1.7360    -0.0260 ca         1 KR5      -0.244500
     17 C10         -3.5790     1.5820    -0.0950 ca         1 KR5       0.029000
     18 C5          -4.1380     0.3060    -0.0710 ca         1 KR5      -0.355500
     19 S2          -5.8710     0.0910    -0.1860 sy         1 KR5       1.275200
     20 O3          -6.4600     1.3600    -0.6030 o          1 KR5      -0.622800
     21 O4          -6.1790    -1.0940    -0.9780 o          1 KR5      -0.622800
     22 N1          -6.2690    -0.3140     1.3720 n8         1 KR5      -0.885700
     23 H1           5.3600    -3.0390    -0.9240 hc         1 KR5       0.061033
     24 H2           6.9410    -2.9390    -0.1480 hc         1 KR5       0.061033
     25 H3           5.4810    -3.0900     0.8290 hc         1 KR5       0.061033
     26 H4           7.9200    -0.4890    -0.0950 ha         1 KR5       0.167000
     27 H5           7.5720     2.4630    -0.8930 hc         1 KR5       0.053033
     28 H6           6.2530     3.1680     0.0480 hc         1 KR5       0.053033
     29 H7           7.6390     2.4320     0.8600 hc         1 KR5       0.053033
     30 H8           2.4970     0.9080     0.9810 hc         1 KR5       0.090200
     31 H9           2.4800     0.9260    -0.7610 hc         1 KR5       0.090200
     32 H10          0.7750    -0.9310    -0.7660 h1         1 KR5       0.059200
     33 H11          0.7860    -0.9320     0.9910 h1         1 KR5       0.059200
     34 H12          0.3290     1.7280     0.0190 hn         1 KR5       0.437800
     35 H13         -1.3270    -1.5480     0.1640 ha         1 KR5       0.135500
     36 H14         -3.7350    -1.8090     0.0430 ha         1 KR5       0.150500
     37 H15         -1.7880     2.7320    -0.0500 ha         1 KR5       0.135500
     38 H16         -4.2060     2.4590    -0.1730 ha         1 KR5       0.150500
     39 H17         -6.1610     0.4650     2.0130 hn         1 KR5       0.410800
     40 H18         -7.2190    -0.6720     1.4250 hn         1 KR5       0.410800
@<TRIPOS>BOND
     1     1     2 2   
     2     2     3 1   
     3     2    10 1   
     4     3     4 1   
     5     3     9 1   
     6     4     5 1   
     7     4     6 2   
     8     5    23 1   
     9     5    24 1   
    10     5    25 1   
    11     6     7 1   
    12     6    26 1   
    13     7     8 1   
    14     7     9 2   
    15     8    27 1   
    16     8    28 1   
    17     8    29 1   
    18    10    11 1   
    19    10    30 1   
    20    10    31 1   
    21    11    12 1   
    22    11    32 1   
    23    11    33 1   
    24    12    13 1   
    25    12    34 1   
    26    13    14 ar  
    27    13    16 ar  
    28    14    15 ar  
    29    14    35 1   
    30    15    18 ar  
    31    15    36 1   
    32    16    17 ar  
    33    16    37 1   
    34    17    18 ar  
    35    17    38 1   
    36    18    19 1   
    37    19    20 2   
    38    19    21 2   
    39    19    22 1   
    40    22    39 1   
    41    22    40 1   
@<TRIPOS>SUBSTRUCTURE
     1 KR5         1 TEMP              0 ****  ****    0 ROOT
