@<TRIPOS>MOLECULE
KR5
   40    41     1     0     0
SMALL
No Charge or Current Charge


@<TRIPOS>ATOM
      1 O25          3.1940    -2.0640     0.0040 o          1 KR5      -0.536100
      2 C22          3.4310    -0.8580     0.0140 c          1 KR5       0.601900
      3 N27          4.7600    -0.3210     0.0350 n          1 KR5       0.112000
      4 C29          5.9650    -1.0450     0.0470 cc         1 KR5      -0.077300
      5 C33          6.0760    -2.5510     0.0410 c3         1 KR5      -0.030800
      6 C30          7.0200    -0.1730     0.0660 cd         1 KR5      -0.231000
      7 C31          6.4450     1.1190     0.0650 cd         1 KR5       0.296300
      8 C37          7.1450     2.4450     0.0810 c3         1 KR5      -0.128400
      9 N28          5.1300     1.0220     0.0470 nc         1 KR5      -0.526800
     10 C19          2.2830     0.1620     0.0040 c3         1 KR5      -0.168400
     11 C18          0.8790    -0.4580    -0.0180 c3         1 KR5       0.232800
     12 N17         -0.1370     0.6060    -0.0260 nu         1 KR5      -0.974200
     13 C8          -1.5210     0.4540    -0.0480 ca         1 KR5       0.396000
     14 C7          -2.1200    -0.8160    -0.0510 ca         1 KR5      -0.226500
     15 C6          -3.5190    -0.9400    -0.0740 ca         1 KR5       0.047000
     16 C9          -2.3240     1.6000    -0.0670 ca         1 KR5      -0.226500
     17 C10         -3.7240     1.4900    -0.0900 ca         1 KR5       0.047000
     18 C5          -4.3230     0.2150    -0.0920 ca         1 KR5      -0.355500
     19 S2          -6.1030     0.0570    -0.1240 sy         1 KR5       1.133600
     20 O3          -6.7120     1.3250    -0.5160 o          1 KR5      -0.552000
     21 O4          -6.4960    -1.2300    -0.6980 o          1 KR5      -0.552000
     22 N1          -6.4380    -0.0630     1.4700 n8         1 KR5      -0.996100
     23 H1           5.6140    -2.9780    -0.8570 hc         1 KR5       0.061033
     24 H2           7.1260    -2.8670     0.0530 hc         1 KR5       0.061033
     25 H3           5.5900    -2.9870     0.9210 hc         1 KR5       0.061033
     26 H4           8.0770    -0.4150     0.0790 ha         1 KR5       0.149000
     27 H5           6.8870     3.0350    -0.8060 hc         1 KR5       0.053033
     28 H6           6.8660     3.0250     0.9690 hc         1 KR5       0.053033
     29 H7           8.2330     2.3150     0.0930 hc         1 KR5       0.053033
     30 H8           2.4260     0.8320     0.8580 hc         1 KR5       0.090200
     31 H9           2.4490     0.8410    -0.8400 hc         1 KR5       0.090200
     32 H10          0.7730    -1.0890    -0.9130 h1         1 KR5       0.059200
     33 H11          0.7490    -1.0990     0.8660 h1         1 KR5       0.059200
     34 H12          0.1950     1.5710    -0.0260 hn         1 KR5       0.493000
     35 H13         -1.5110    -1.7130    -0.0360 ha         1 KR5       0.117500
     36 H14         -3.9690    -1.9320    -0.0750 ha         1 KR5       0.132500
     37 H15         -1.8670     2.5850    -0.0660 ha         1 KR5       0.117500
     38 H16         -4.3310     2.3940    -0.1070 ha         1 KR5       0.132500
     39 H17         -5.5960     0.3190     1.8920 hn         1 KR5       0.466000
     40 H18         -7.1250     0.6790     1.5780 hn         1 KR5       0.466000
@<TRIPOS>BOND
     1     1     2 2   
     2     2     3 1   
     3     2    10 1   
     4     3     4 1   
     5     3     9 1   
     6     4     5 1   
     7     4     6 2   
     8     5    23 1   
     9     5    24 1   
    10     5    25 1   
    11     6     7 1   
    12     6    26 1   
    13     7     8 1   
    14     7     9 2   
    15     8    27 1   
    16     8    28 1   
    17     8    29 1   
    18    10    11 1   
    19    10    30 1   
    20    10    31 1   
    21    11    12 1   
    22    11    32 1   
    23    11    33 1   
    24    12    13 1   
    25    12    34 1   
    26    13    14 ar  
    27    13    16 ar  
    28    14    15 ar  
    29    14    35 1   
    30    15    18 ar  
    31    15    36 1   
    32    16    17 ar  
    33    16    37 1   
    34    17    18 ar  
    35    17    38 1   
    36    18    19 1   
    37    19    20 2   
    38    19    21 2   
    39    19    22 1   
    40    22    39 1   
    41    22    40 1   
@<TRIPOS>SUBSTRUCTURE
     1 KR5         1 TEMP              0 ****  ****    0 ROOT
