@<TRIPOS>MOLECULE
KR6
   41    41     1     0     0
SMALL
No Charge or Current Charge


@<TRIPOS>ATOM
      1 C7          -4.1200     4.4320    14.5060 ca         1 KR6       0.013000
      2 C8          -5.1960     4.4810    15.4090 ca         1 KR6      -0.135500
      3 C9          -5.5100     3.3720    16.2130 ca         1 KR6       0.003500
      4 O1          -5.9320     1.1700    18.3010 o          1 KR6      -0.545000
      5 C1          -1.3480     8.0550    12.7040 c3         1 KR6       0.076600
      6 C5           0.8720    11.1770    13.1750 c3         1 KR6      -0.094100
      7 C6          -2.1500     5.5770    12.6890 c3         1 KR6       0.107600
      8 C4          -0.3780    11.5810    12.3640 c3         1 KR6      -0.078400
      9 C3          -1.6560    11.7700    13.2180 c3         1 KR6      -0.072400
     10 C2          -2.1790    10.5040    13.9360 c3         1 KR6       0.121600
     11 O2          -3.9920    -0.1270    17.2490 o          1 KR6      -0.545000
     12 N           -6.1930    -0.0590    16.2200 n8         1 KR6      -1.008100
     13 C10         -4.7420     2.1950    16.1170 ca         1 KR6      -0.285500
     14 C11         -3.6660     2.1360    15.2090 ca         1 KR6       0.003500
     15 C12         -3.3560     3.2500    14.4080 ca         1 KR6      -0.135500
     16 SE1         -3.7840     5.8910    13.5140 ss         1 KR6      -0.205000
     17 C           -1.6350     6.7840    11.8570 c3         1 KR6       0.194300
     18 O           -2.5710     7.1160    10.8220 oh         1 KR6      -0.638000
     19 H1          -5.7930     5.3860    15.4890 ha         1 KR6       0.123000
     20 H2          -6.3490     3.4320    16.9050 ha         1 KR6       0.136500
     21 H3          -1.0830     7.7680    13.7300 h1         1 KR6       0.060200
     22 H4          -0.4850     8.5750    12.2700 h1         1 KR6       0.060200
     23 H5           1.7470    11.1160    12.5180 hc         1 KR6       0.031033
     24 H6           1.0820    11.9170    13.9560 hc         1 KR6       0.031033
     25 H7           0.7390    10.1990    13.6520 hc         1 KR6       0.031033
     26 H8          -2.2520     4.7100    12.0250 h1         1 KR6       0.069700
     27 H9          -1.4090     5.3320    13.4590 h1         1 KR6       0.069700
     28 H10         -0.1630    12.5250    11.8490 hc         1 KR6       0.043200
     29 H11         -0.5600    10.8390    11.5780 hc         1 KR6       0.043200
     30 H12         -1.4620    12.5410    13.9730 hc         1 KR6       0.049700
     31 H13         -2.4550    12.1630    12.5770 hc         1 KR6       0.049700
     32 H14         -1.4010    10.0710    14.5780 h1         1 KR6       0.059700
     33 H15         -3.0190    10.7930    14.5820 h1         1 KR6       0.059700
     34 H16         -5.7590    -0.9790    16.2340 hn         1 KR6       0.474000
     35 H17         -6.9580    -0.1750    16.8810 hn         1 KR6       0.474000
     36 H18         -3.0670     1.2310    15.1190 ha         1 KR6       0.136500
     37 H19         -2.5250     3.1710    13.7150 ha         1 KR6       0.123000
     38 H20         -0.6850     6.4690    11.4040 h1         1 KR6       0.032700
     39 H21         -3.0480     7.9010    11.1810 ho         1 KR6       0.450000
     40 S           -5.1370     0.7750    17.1410 sy         1 KR6       1.129600
     41 SE          -2.7970     9.2330    12.7330 ss         1 KR6      -0.514000
@<TRIPOS>BOND
     1     1     2 ar  
     2     1    15 ar  
     3     1    16 1   
     4     2     3 ar  
     5     2    19 1   
     6     3    13 ar  
     7     3    20 1   
     8     4    40 2   
     9     5    17 1   
    10     5    21 1   
    11     5    22 1   
    12     5    41 1   
    13     6     8 1   
    14     6    23 1   
    15     6    24 1   
    16     6    25 1   
    17     7    16 1   
    18     7    17 1   
    19     7    26 1   
    20     7    27 1   
    21     8     9 1   
    22     8    28 1   
    23     8    29 1   
    24     9    10 1   
    25     9    30 1   
    26     9    31 1   
    27    10    32 1   
    28    10    33 1   
    29    10    41 1   
    30    11    40 2   
    31    12    34 1   
    32    12    35 1   
    33    12    40 1   
    34    13    14 ar  
    35    13    40 1   
    36    14    15 ar  
    37    14    36 1   
    38    15    37 1   
    39    17    18 1   
    40    17    38 1   
    41    18    39 1   
@<TRIPOS>SUBSTRUCTURE
     1 KR6         1 TEMP              0 ****  ****    0 ROOT
