@<TRIPOS>MOLECULE
KR6
   41    41     1     0     0
SMALL
bcc


@<TRIPOS>ATOM
      1 C7          -4.3610     4.4240    14.3340 ca         1 KR6       0.139900
      2 C8          -5.6460     4.3760    14.8800 ca         1 KR6      -0.153500
      3 C9          -6.0260     3.3290    15.7010 ca         1 KR6      -0.014500
      4 O1          -6.9480     1.2180    17.4890 o          1 KR6      -0.615800
      5 C1          -0.9090     7.8270    13.1990 c3         1 KR6       0.028700
      6 C5           0.3680    11.3780    12.0630 c3         1 KR6      -0.094100
      7 C6          -2.0790     5.5750    12.8280 c3         1 KR6       0.059700
      8 C4          -1.1380    11.4150    12.2950 c3         1 KR6      -0.078400
      9 C3          -1.5330    11.5650    13.7600 c3         1 KR6      -0.072400
     10 C2          -1.2030    10.3840    14.6650 c3         1 KR6       0.073700
     11 O2          -4.5530     0.9330    18.1530 o          1 KR6      -0.615800
     12 N           -5.3320    -0.3150    16.1580 n8         1 KR6      -0.897700
     13 C10         -5.1170     2.3200    15.9860 ca         1 KR6      -0.285500
     14 C11         -3.8350     2.3540    15.4550 ca         1 KR6      -0.014500
     15 C12         -3.4610     3.3960    14.6240 ca         1 KR6      -0.153500
     16 SE1         -3.9730     5.9030    13.2140 ss         1 KR6      -0.284000
     17 C           -1.4480     6.8120    12.1990 c3         1 KR6       0.171100
     18 O           -2.3730     7.3490    11.2890 oh         1 KR6      -0.575800
     19 H1          -6.3650     5.1590    14.6720 ha         1 KR6       0.141000
     20 H2          -7.0260     3.3120    16.1130 ha         1 KR6       0.154500
     21 H3          -0.1920     7.3260    13.8520 h1         1 KR6       0.060200
     22 H4          -0.3580     8.5940    12.6500 h1         1 KR6       0.060200
     23 H5           0.6000    11.2970    11.0010 hc         1 KR6       0.031033
     24 H6           0.8420    12.2870    12.4370 hc         1 KR6       0.031033
     25 H7           0.8460    10.5330    12.5620 hc         1 KR6       0.031033
     26 H8          -2.0090     4.7250    12.1480 h1         1 KR6       0.069700
     27 H9          -1.5510     5.3200    13.7480 h1         1 KR6       0.069700
     28 H10         -1.5580    12.2570    11.7400 hc         1 KR6       0.043200
     29 H11         -1.6070    10.5210    11.8710 hc         1 KR6       0.043200
     30 H12         -1.0250    12.4450    14.1720 hc         1 KR6       0.049700
     31 H13         -2.6030    11.7770    13.8290 hc         1 KR6       0.049700
     32 H14         -0.1440    10.1190    14.6230 h1         1 KR6       0.059700
     33 H15         -1.4160    10.6460    15.7030 h1         1 KR6       0.059700
     34 H16         -5.2150    -1.1530    16.7200 hn         1 KR6       0.418800
     35 H17         -6.0720    -0.4450    15.4750 hn         1 KR6       0.418800
     36 H18         -3.1230     1.5670    15.6680 ha         1 KR6       0.154500
     37 H19         -2.4620     3.3870    14.2120 ha         1 KR6       0.141000
     38 H20         -0.5520     6.4490    11.6710 h1         1 KR6       0.032700
     39 H21         -2.0080     8.1520    10.9010 ho         1 KR6       0.411000
     40 S           -5.5570     1.0230    17.1030 sy         1 KR6       1.271200
     41 SE          -2.2530     8.7560    14.2940 ss         1 KR6      -0.418200
@<TRIPOS>BOND
     1     1     2 ar  
     2     1    15 ar  
     3     1    16 1   
     4     2     3 ar  
     5     2    19 1   
     6     3    13 ar  
     7     3    20 1   
     8     4    40 2   
     9     5    17 1   
    10     5    21 1   
    11     5    22 1   
    12     5    41 1   
    13     6     8 1   
    14     6    23 1   
    15     6    24 1   
    16     6    25 1   
    17     7    16 1   
    18     7    17 1   
    19     7    26 1   
    20     7    27 1   
    21     8     9 1   
    22     8    28 1   
    23     8    29 1   
    24     9    10 1   
    25     9    30 1   
    26     9    31 1   
    27    10    32 1   
    28    10    33 1   
    29    10    41 1   
    30    11    40 2   
    31    12    34 1   
    32    12    35 1   
    33    12    40 1   
    34    13    14 ar  
    35    13    40 1   
    36    14    15 ar  
    37    14    36 1   
    38    15    37 1   
    39    17    18 1   
    40    17    38 1   
    41    18    39 1   
@<TRIPOS>SUBSTRUCTURE
     1 KR6         1 TEMP              0 ****  ****    0 ROOT
