@<TRIPOS>MOLECULE
KR7
   42    44     1     0     0
SMALL
No Charge or Current Charge


@<TRIPOS>ATOM
      1 C8           1.1970    -0.6970     2.1190 c3         1 KR7       0.018200
      2 C9          -0.0730    -1.0100     1.3400 ca         1 KR7      -0.019300
      3 C10         -0.3850    -2.3240     0.9550 ca         1 KR7      -0.105000
      4 C11         -1.5690    -2.5740     0.2330 ca         1 KR7       0.242300
      5 C12         -1.9180    -4.0170    -0.1850 c3         1 KR7       0.265700
      6 C7           2.3010    -0.2010     1.1950 ca         1 KR7      -0.139300
      7 C2           4.3400     0.7140    -0.5400 ca         1 KR7       0.020700
      8 C3           4.1310    -0.6650    -0.3510 ca         1 KR7      -0.108500
      9 C6           2.5080     1.1780     1.0070 ca         1 KR7      -0.106000
     10 C4           3.1170    -1.1210     0.5100 ca         1 KR7      -0.106000
     11 C5           3.5220     1.6320     0.1460 ca         1 KR7      -0.108500
     12 O1           7.4750     0.4120    -0.5690 o          1 KR7      -0.724000
     13 C13         -2.1340    -0.2950     0.2350 cp         1 KR7       0.401500
     14 C14         -3.1200     0.7610    -0.1930 cp         1 KR7      -0.130500
     15 C1           5.4370     1.2080    -1.4780 c3         1 KR7      -0.195100
     16 C15         -4.4760     0.4330    -0.4780 ca         1 KR7      -0.071000
     17 C16         -5.3990     1.4150    -0.8770 ca         1 KR7      -0.114000
     18 C18         -3.6610     3.1020    -0.7390 ca         1 KR7       0.112000
     19 C20         -0.9640     0.0120     0.9730 ca         1 KR7      -0.123000
     20 C17         -4.9920     2.7520    -1.0070 ca         1 KR7      -0.099000
     21 C19         -2.7360     2.1230    -0.3390 ca         1 KR7      -0.086000
     22 C            6.7430     1.3830    -0.6900 c          1 KR7       0.725000
     23 O            6.9360     2.4500    -0.1270 o          1 KR7      -0.724000
     24 N           -2.4220    -1.5720    -0.1090 nb         1 KR7      -0.652000
     25 F2          -2.0200    -4.8350     0.8890 f          1 KR7      -0.110667
     26 F1          -3.0900    -4.1150    -0.8590 f          1 KR7      -0.110667
     27 F           -0.9650    -4.5450    -0.9880 f          1 KR7      -0.110667
     28 Cl          -3.1450     4.7750    -0.9110 cl         1 KR7      -0.206000
     29 H1           0.9840     0.0520     2.8910 hc         1 KR7       0.052200
     30 H2           1.5360    -1.5870     2.6630 hc         1 KR7       0.052200
     31 H3           0.2790    -3.1450     1.2110 ha         1 KR7       0.144000
     32 H4           4.7550    -1.3870    -0.8730 ha         1 KR7       0.113000
     33 H5           1.8830     1.9010     1.5270 ha         1 KR7       0.087000
     34 H6           2.9660    -2.1890     0.6420 ha         1 KR7       0.087000
     35 H7           3.6710     2.7010     0.0110 ha         1 KR7       0.113000
     36 H8           5.5650     0.4450    -2.2550 hc         1 KR7       0.034700
     37 H9           5.1070     2.1730    -1.8800 hc         1 KR7       0.034700
     38 H10         -4.8210    -0.5950    -0.3820 ha         1 KR7       0.137000
     39 H11         -6.4300     1.1390    -1.0860 ha         1 KR7       0.115000
     40 H12         -0.7520     1.0350     1.2660 ha         1 KR7       0.132000
     41 H13         -5.7040     3.5130    -1.3160 ha         1 KR7       0.124000
     42 H14         -1.7100     2.4310    -0.1600 ha         1 KR7       0.136000
@<TRIPOS>BOND
     1     1     2 1   
     2     1     6 1   
     3     1    29 1   
     4     1    30 1   
     5     2     3 ar  
     6     2    19 ar  
     7     3     4 ar  
     8     3    31 1   
     9     4     5 1   
    10     4    24 ar  
    11     5    25 1   
    12     5    26 1   
    13     5    27 1   
    14     6     9 ar  
    15     6    10 ar  
    16     7     8 ar  
    17     7    11 ar  
    18     7    15 1   
    19     8    10 ar  
    20     8    32 1   
    21     9    11 ar  
    22     9    33 1   
    23    10    34 1   
    24    11    35 1   
    25    12    22 1   
    26    13    14 1   
    27    13    19 ar  
    28    13    24 ar  
    29    14    16 ar  
    30    14    21 ar  
    31    15    22 1   
    32    15    36 1   
    33    15    37 1   
    34    16    17 ar  
    35    16    38 1   
    36    17    20 ar  
    37    17    39 1   
    38    18    20 ar  
    39    18    21 ar  
    40    18    28 1   
    41    19    40 1   
    42    20    41 1   
    43    21    42 1   
    44    22    23 1   
@<TRIPOS>SUBSTRUCTURE
     1 KR7         1 TEMP              0 ****  ****    0 ROOT
