@<TRIPOS>MOLECULE
KR7
   42    44     1     0     0
SMALL
bcc


@<TRIPOS>ATOM
      1 C8           1.1130    -0.6050     2.1750 c3         1 KR7       0.018200
      2 C9          -0.1050    -0.9250     1.3540 ca         1 KR7      -0.019300
      3 C10         -0.3200    -2.2120     0.8660 ca         1 KR7      -0.188300
      4 C11         -1.4390    -2.4300     0.0880 ca         1 KR7       0.307600
      5 C12         -1.7690    -3.7860    -0.4760 c3         1 KR7       0.629600
      6 C7           2.2470    -0.1650     1.2810 ca         1 KR7      -0.139300
      7 C2           4.3100     0.6370    -0.4720 ca         1 KR7       0.020700
      8 C3           4.1750    -0.6930    -0.0780 ca         1 KR7      -0.126500
      9 C6           2.3780     1.1650     0.8960 ca         1 KR7      -0.124000
     10 C4           3.1600    -1.0890     0.7790 ca         1 KR7      -0.124000
     11 C5           3.3930     1.5560     0.0320 ca         1 KR7      -0.126500
     12 O1           6.9670     0.6180     0.3800 o          1 KR7      -0.829300
     13 C13         -2.1180    -0.2620     0.2130 cp         1 KR7       0.466800
     14 C14         -3.1230     0.7520    -0.1730 cp         1 KR7      -0.130500
     15 C1           5.4120     1.0650    -1.3870 c3         1 KR7      -0.195100
     16 C15         -4.4230     0.3610    -0.4910 ca         1 KR7      -0.089000
     17 C16         -5.3710     1.3060    -0.8470 ca         1 KR7      -0.132000
     18 C18         -3.7450     3.0320    -0.6000 ca         1 KR7       0.020400
     19 C20         -1.0280     0.0530     1.0260 ca         1 KR7      -0.206300
     20 C17         -5.0430     2.6530    -0.9060 ca         1 KR7      -0.117000
     21 C19         -2.7850     2.1030    -0.2350 ca         1 KR7      -0.104000
     22 C            6.8040     1.1870    -0.7140 c          1 KR7       0.935600
     23 O            7.6530     1.8320    -1.3590 o          1 KR7      -0.829300
     24 N           -2.3130    -1.4940    -0.2370 nb         1 KR7      -0.652000
     25 F2          -0.8860    -4.7180    -0.1090 f          1 KR7      -0.231967
     26 F1          -2.9750    -4.1980    -0.0750 f          1 KR7      -0.231967
     27 F           -1.7900    -3.7610    -1.8130 f          1 KR7      -0.231967
     28 CL          -3.3050     4.7060    -0.6840 cl         1 KR7      -0.114400
     29 H1           0.8760     0.1820     2.8940 hc         1 KR7       0.052200
     30 H2           1.4100    -1.4850     2.7470 hc         1 KR7       0.052200
     31 H3           0.3720    -3.0090     1.1040 ha         1 KR7       0.162000
     32 H4           4.8700    -1.4350    -0.4540 ha         1 KR7       0.131000
     33 H5           1.6830     1.9070     1.2710 ha         1 KR7       0.105000
     34 H6           3.0800    -2.1310     1.0670 ha         1 KR7       0.105000
     35 H7           3.4710     2.5990    -0.2550 ha         1 KR7       0.131000
     36 H8           5.5140     0.3420    -2.2030 hc         1 KR7       0.034700
     37 H9           5.1610     2.0170    -1.8610 hc         1 KR7       0.034700
     38 H10         -4.6930    -0.6860    -0.4510 ha         1 KR7       0.155000
     39 H11         -6.3800     0.9950    -1.0830 ha         1 KR7       0.133000
     40 H12         -0.9110     1.0540     1.4220 ha         1 KR7       0.150000
     41 H13         -5.7820     3.3910    -1.1860 ha         1 KR7       0.142000
     42 H14         -1.7780     2.4360    -0.0240 ha         1 KR7       0.154000
@<TRIPOS>BOND
     1     1     2 1   
     2     1     6 1   
     3     1    29 1   
     4     1    30 1   
     5     2     3 ar  
     6     2    19 ar  
     7     3     4 ar  
     8     3    31 1   
     9     4     5 1   
    10     4    24 ar  
    11     5    25 1   
    12     5    26 1   
    13     5    27 1   
    14     6     9 ar  
    15     6    10 ar  
    16     7     8 ar  
    17     7    11 ar  
    18     7    15 1   
    19     8    10 ar  
    20     8    32 1   
    21     9    11 ar  
    22     9    33 1   
    23    10    34 1   
    24    11    35 1   
    25    12    22 1   
    26    13    14 1   
    27    13    19 ar  
    28    13    24 ar  
    29    14    16 ar  
    30    14    21 ar  
    31    15    22 1   
    32    15    36 1   
    33    15    37 1   
    34    16    17 ar  
    35    16    38 1   
    36    17    20 ar  
    37    17    39 1   
    38    18    20 ar  
    39    18    21 ar  
    40    18    28 1   
    41    19    40 1   
    42    20    41 1   
    43    21    42 1   
    44    22    23 1   
@<TRIPOS>SUBSTRUCTURE
     1 KR7         1 TEMP              0 ****  ****    0 ROOT
