@<TRIPOS>MOLECULE
KR8
   37    40     1     0     0
SMALL
bcc


@<TRIPOS>ATOM
      1 C10          2.3430     1.0000     0.0010 cc         1 KR8      -0.359400
      2 C12          2.9820    -0.2400    -0.0610 cd         1 KR8      -0.041300
      3 C13          2.6160    -1.6000    -0.0970 cd         1 KR8      -0.043000
      4 C15          4.9600    -2.0780    -0.1720 cc         1 KR8       0.360200
      5 C           -6.2090    -0.4030    -0.0310 ca         1 KR8      -0.132000
      6 C1          -5.5390    -1.0820     0.9770 ca         1 KR8      -0.121000
      7 C11          3.4000     1.9220     0.0110 cc         1 KR8       0.389500
      8 C14          3.6150    -2.5220    -0.1530 cc         1 KR8      -0.245300
      9 C16         -1.4240    -1.9800    -0.0760 c3         1 KR8       0.235100
     10 C2          -4.1520    -1.1420     0.9760 ca         1 KR8      -0.126000
     11 C3          -3.4250    -0.5350    -0.0430 ca         1 KR8       0.159600
     12 C4          -4.0980     0.1370    -1.0590 ca         1 KR8      -0.126000
     13 C5          -5.4820     0.2070    -1.0470 ca         1 KR8      -0.121000
     14 C6          -1.2080     0.4400     0.0120 ca         1 KR8       0.920900
     15 C7          -0.9630     2.6730     0.2010 ca         1 KR8       0.478200
     16 C8           0.4130     2.5590     0.1580 ca         1 KR8      -0.424600
     17 C9           0.9180     1.2640     0.0430 ca         1 KR8       0.602100
     18 N1          -1.7860     1.6390     0.1330 nb         1 KR8      -0.756000
     19 N2           4.5870     1.3440    -0.0390 nd         1 KR8      -0.524100
     20 N3           4.3260     0.0440    -0.0810 na         1 KR8       0.378500
     21 N4           5.3150    -0.8280    -0.1360 nd         1 KR8      -0.428800
     22 N5           0.1040     0.2140    -0.0290 nb         1 KR8      -0.798000
     23 H1           1.5710    -1.8690    -0.0790 ha         1 KR8       0.178000
     24 H2           5.7750    -2.7870    -0.2170 h4         1 KR8       0.043100
     25 H4          -6.0940    -1.5600     1.7740 ha         1 KR8       0.131500
     26 H5           3.3390     2.9990     0.0510 h4         1 KR8       0.053800
     27 H6           3.4070    -3.5810    -0.1820 ha         1 KR8       0.154000
     28 H7          -0.8870    -2.2030     0.8480 h1         1 KR8       0.041700
     29 H8          -2.2170    -2.7120    -0.1980 h1         1 KR8       0.041700
     30 H9          -0.7320    -2.0920    -0.9110 h1         1 KR8       0.041700
     31 H10         -3.6310    -1.6600     1.7720 ha         1 KR8       0.138000
     32 H11         -3.5390     0.6000    -1.8620 ha         1 KR8       0.138000
     33 H12         -5.9970     0.7300    -1.8430 ha         1 KR8       0.131500
     34 H13         -1.4260     3.6500     0.3000 h4         1 KR8       0.021100
     35 H14          1.0480     3.4310     0.2210 ha         1 KR8       0.152000
     36 N           -2.0140    -0.6530    -0.0610 nh         1 KR8      -0.672700
     37 H3          -7.2900    -0.3520    -0.0290 ha         1 KR8       0.132000
@<TRIPOS>BOND
     1     1     2 2   
     2     1     7 1   
     3     1    17 1   
     4     2     3 1   
     5     2    20 1   
     6     3     8 2   
     7     3    23 1   
     8     4     8 1   
     9     4    21 2   
    10     4    24 1   
    11     5     6 ar  
    12     5    13 ar  
    13     5    37 1   
    14     6    10 ar  
    15     6    25 1   
    16     7    19 2   
    17     7    26 1   
    18     8    27 1   
    19     9    28 1   
    20     9    29 1   
    21     9    30 1   
    22     9    36 1   
    23    10    11 ar  
    24    10    31 1   
    25    11    12 ar  
    26    11    36 1   
    27    12    13 ar  
    28    12    32 1   
    29    13    33 1   
    30    14    18 ar  
    31    14    22 ar  
    32    14    36 1   
    33    15    16 ar  
    34    15    18 ar  
    35    15    34 1   
    36    16    17 ar  
    37    16    35 1   
    38    17    22 ar  
    39    19    20 1   
    40    20    21 1   
@<TRIPOS>SUBSTRUCTURE
     1 KR8         1 TEMP              0 ****  ****    0 ROOT
