@<TRIPOS>MOLECULE
KR8
   37    40     1     0     0
SMALL
No Charge or Current Charge


@<TRIPOS>ATOM
      1 C10          2.4200     0.9990    -0.0160 cc         1 KR8      -0.359400
      2 C12          3.0840    -0.1960    -0.1550 cd         1 KR8      -0.092000
      3 C13          2.6200    -1.5450    -0.2170 cd         1 KR8      -0.025000
      4 C15          5.0030    -2.0040    -0.4350 cc         1 KR8       0.294900
      5 C           -6.2610    -0.3590    -0.3220 ca         1 KR8      -0.114000
      6 C1          -5.7530    -1.0430     0.7950 ca         1 KR8      -0.103000
      7 C11          3.4500     1.9760    -0.0240 cc         1 KR8       0.389500
      8 C14          3.6370    -2.4570    -0.3620 cc         1 KR8      -0.162000
      9 C16         -1.5100    -2.0970     0.3740 c3         1 KR8       0.235100
     10 C2          -4.3620    -1.1610     0.9740 ca         1 KR8      -0.108000
     11 C3          -3.4670    -0.5940     0.0450 ca         1 KR8       0.298000
     12 C4          -3.9890     0.0850    -1.0750 ca         1 KR8      -0.108000
     13 C5          -5.3790     0.2050    -1.2590 ca         1 KR8      -0.103000
     14 C6          -1.1950     0.3980     0.2190 ca         1 KR8       0.394900
     15 C7          -0.9280     2.6700     0.3720 ca         1 KR8       0.149900
     16 C8           0.4590     2.5100     0.2480 ca         1 KR8      -0.276000
     17 C9           0.9700     1.2060     0.1120 ca         1 KR8       0.273800
     18 N1          -1.7590     1.6150     0.3610 nb         1 KR8      -0.230000
     19 N2           4.6810     1.5030    -0.1540 nd         1 KR8      -0.524100
     20 N3           4.4280     0.1580    -0.2330 na         1 KR8       0.429200
     21 N4           5.4580    -0.7480    -0.3790 nd         1 KR8      -0.428800
     22 N5           0.1280     0.1550     0.1010 nb         1 KR8      -0.272000
     23 H1           1.5830    -1.8520    -0.1590 ha         1 KR8       0.160000
     24 H2           5.8010    -2.7260    -0.5490 h4         1 KR8       0.043100
     25 H4          -6.4340    -1.4810     1.5210 ha         1 KR8       0.113500
     26 H5           3.3310     3.0480     0.0630 h4         1 KR8       0.053800
     27 H6           3.4340    -3.5200    -0.4240 ha         1 KR8       0.136000
     28 H7          -0.9360    -2.1820     1.3060 h1         1 KR8       0.041700
     29 H8          -2.3110    -2.8470     0.4060 h1         1 KR8       0.041700
     30 H9          -0.8610    -2.3460    -0.4770 h1         1 KR8       0.041700
     31 H10         -3.9770    -1.6860     1.8430 ha         1 KR8       0.120000
     32 H11         -3.3130     0.5150    -1.8080 ha         1 KR8       0.120000
     33 H12         -5.7700     0.7320    -2.1260 ha         1 KR8       0.113500
     34 H13         -1.3790     3.6550     0.4840 h4         1 KR8       0.021100
     35 H14          1.1060     3.3810     0.2610 ha         1 KR8       0.134000
     36 N           -2.0670    -0.7260     0.2240 nh         1 KR8      -0.811100
     37 H3          -7.3360    -0.2680    -0.4620 ha         1 KR8       0.114000
@<TRIPOS>BOND
     1     1     2 2   
     2     1     7 1   
     3     1    17 1   
     4     2     3 1   
     5     2    20 1   
     6     3     8 2   
     7     3    23 1   
     8     4     8 1   
     9     4    21 2   
    10     4    24 1   
    11     5     6 ar  
    12     5    13 ar  
    13     5    37 1   
    14     6    10 ar  
    15     6    25 1   
    16     7    19 2   
    17     7    26 1   
    18     8    27 1   
    19     9    28 1   
    20     9    29 1   
    21     9    30 1   
    22     9    36 1   
    23    10    11 ar  
    24    10    31 1   
    25    11    12 ar  
    26    11    36 1   
    27    12    13 ar  
    28    12    32 1   
    29    13    33 1   
    30    14    18 ar  
    31    14    22 ar  
    32    14    36 1   
    33    15    16 ar  
    34    15    18 ar  
    35    15    34 1   
    36    16    17 ar  
    37    16    35 1   
    38    17    22 ar  
    39    19    20 1   
    40    20    21 1   
@<TRIPOS>SUBSTRUCTURE
     1 KR8         1 TEMP              0 ****  ****    0 ROOT
