@<TRIPOS>MOLECULE
KR9
   65    69     1     0     0
SMALL
No Charge or Current Charge


@<TRIPOS>ATOM
      1 C01         54.0280   -41.4870    33.3380 c3         1 KR9       0.093300
      2 C03         52.7630   -40.1720    31.6090 c          1 KR9       0.591100
      3 C04         51.4720   -40.1470    30.7420 c3         1 KR9       0.032700
      4 C07         50.0910   -36.9010    29.1450 ca         1 KR9       0.334500
      5 C09         51.3240   -35.5180    27.6910 ca         1 KR9       0.315000
      6 C10         50.2030   -34.6810    27.5040 ca         1 KR9      -0.136000
      7 C11         50.3080   -33.5730    26.6470 ca         1 KR9       0.371900
      8 C13         52.5060   -34.0800    26.1430 ca         1 KR9       0.337900
      9 C14         52.5170   -35.2110    26.9890 cp         1 KR9      -0.038000
     10 C15         53.7410   -36.0650    27.0940 cp         1 KR9      -0.065000
     11 C16         54.1790   -36.8020    25.9690 ca         1 KR9      -0.056000
     12 C17         55.2980   -37.6490    26.0350 ca         1 KR9       0.040100
     13 C19         56.7440   -39.2620    24.7890 c3         1 KR9       0.509000
     14 C23         56.0090   -37.7620    27.2520 ca         1 KR9      -0.054000
     15 C24         55.5990   -37.0280    28.3790 ca         1 KR9      -0.189000
     16 C25         54.4730   -36.1810    28.3030 ca         1 KR9       0.188100
     17 C27         54.6110   -35.5610    30.6900 c3         1 KR9       0.139900
     18 C28         48.9950   -34.9690    28.1650 ca         1 KR9      -0.053000
     19 C29         48.9420   -36.1000    28.9930 ca         1 KR9      -0.121000
     20 C31         51.5190   -41.2400    29.6400 c3         1 KR9      -0.014200
     21 C32         50.3500   -41.2030    28.6860 cc         1 KR9      -0.153400
     22 C33         49.1450   -41.8900    28.8030 cd         1 KR9      -0.143100
     23 C35         48.9960   -40.6310    26.9620 ca         1 KR9      -0.045200
     24 C36         50.2360   -40.4100    27.4920 ca         1 KR9      -0.094800
     25 C37         51.1510   -39.5320    26.8900 ca         1 KR9      -0.054000
     26 C38         50.7500   -38.8620    25.7150 ca         1 KR9      -0.138000
     27 C39         49.4640   -39.0840    25.1690 ca         1 KR9      -0.091000
     28 C40         48.5720   -39.9810    25.7940 ca         1 KR9      -0.131000
     29 F20         56.8220   -39.7860    23.5450 f          1 KR9      -0.110333
     30 F21         56.6130   -40.3010    25.6450 f          1 KR9      -0.110333
     31 F22         57.9320   -38.6630    25.0370 f          1 KR9      -0.110333
     32 N02         52.8920   -41.2630    32.4420 ns         1 KR9      -0.503900
     33 N05         51.2690   -38.8060    30.1510 ns         1 KR9      -0.464900
     34 N08         51.2550   -36.6010    28.5000 nb         1 KR9      -0.660000
     35 N12         51.4370   -33.2700    25.9720 nb         1 KR9      -0.659000
     36 N34         48.2910   -41.5400    27.7290 na         1 KR9      -0.218700
     37 O18         55.6400   -38.3380    24.8840 os         1 KR9      -0.397100
     38 O26         54.0460   -35.4200    29.3760 os         1 KR9      -0.327100
     39 O30         49.0480   -38.5490    30.6090 o          1 KR9      -0.605100
     40 O41         53.6170   -39.2930    31.5710 o          1 KR9      -0.612100
     41 H011        53.8850   -42.4270    33.8860 h1         1 KR9       0.042033
     42 H013        54.9550   -41.5480    32.7520 h1         1 KR9       0.042033
     43 H012        54.1030   -40.6590    34.0540 h1         1 KR9       0.042033
     44 H041        50.6340   -40.3670    31.4150 h1         1 KR9       0.084700
     45 H111        49.4590   -32.9100    26.4860 h4         1 KR9       0.023100
     46 H131        53.4000   -33.8140    25.5800 h4         1 KR9       0.027100
     47 H161        53.6310   -36.7270    25.0330 ha         1 KR9       0.135000
     48 H231        56.8790   -38.4050    27.3450 ha         1 KR9       0.134000
     49 H241        56.1690   -37.1260    29.2980 ha         1 KR9       0.134000
     50 H272        54.1000   -34.8950    31.3960 h1         1 KR9       0.049700
     51 H273        54.5000   -36.5910    31.0530 h1         1 KR9       0.049700
     52 H271        55.6770   -35.3000    30.6880 h1         1 KR9       0.049700
     53 H281        48.1170   -34.3390    28.0340 ha         1 KR9       0.126000
     54 H291        48.0230   -36.3580    29.5120 ha         1 KR9       0.150000
     55 H311        51.5690   -42.2290    30.1130 hc         1 KR9       0.056200
     56 H312        52.4510   -41.1310    29.0710 hc         1 KR9       0.056200
     57 H331        48.8300   -42.5860    29.5760 h4         1 KR9       0.209000
     58 H371        52.1360   -39.3630    27.3170 ha         1 KR9       0.119000
     59 H381        51.4330   -38.1690    25.2290 ha         1 KR9       0.110000
     60 H391        49.1630   -38.5630    24.2640 ha         1 KR9       0.109000
     61 H401        47.5820   -40.1610    25.3800 ha         1 KR9       0.112000
     62 H021        52.1440   -41.9480    32.4260 hn         1 KR9       0.319500
     63 H051        52.0440   -38.3630    29.6660 hn         1 KR9       0.356500
     64 H341        47.3490   -41.8800    27.5600 hn         1 KR9       0.350000
     65 C06         50.0570   -38.1490    30.0340 c          1 KR9       0.514600
@<TRIPOS>BOND
     1     1    32 1   
     2     1    41 1   
     3     1    42 1   
     4     1    43 1   
     5     2     3 1   
     6     2    32 1   
     7     2    40 2   
     8     3    20 1   
     9     3    33 1   
    10     3    44 1   
    11     4    19 ar  
    12     4    34 ar  
    13     4    65 1   
    14     5     6 ar  
    15     5     9 ar  
    16     5    34 ar  
    17     6     7 ar  
    18     6    18 ar  
    19     7    35 ar  
    20     7    45 1   
    21     8     9 ar  
    22     8    35 ar  
    23     8    46 1   
    24     9    10 1   
    25    10    11 ar  
    26    10    16 ar  
    27    11    12 ar  
    28    11    47 1   
    29    12    14 ar  
    30    12    37 1   
    31    13    29 1   
    32    13    30 1   
    33    13    31 1   
    34    13    37 1   
    35    14    15 ar  
    36    14    48 1   
    37    15    16 ar  
    38    15    49 1   
    39    16    38 1   
    40    17    38 1   
    41    17    50 1   
    42    17    51 1   
    43    17    52 1   
    44    18    19 ar  
    45    18    53 1   
    46    19    54 1   
    47    20    21 1   
    48    20    55 1   
    49    20    56 1   
    50    21    22 2   
    51    21    24 1   
    52    22    36 1   
    53    22    57 1   
    54    23    24 ar  
    55    23    28 ar  
    56    23    36 1   
    57    24    25 ar  
    58    25    26 ar  
    59    25    58 1   
    60    26    27 ar  
    61    26    59 1   
    62    27    28 ar  
    63    27    60 1   
    64    28    61 1   
    65    32    62 1   
    66    33    63 1   
    67    33    65 1   
    68    36    64 1   
    69    39    65 2   
@<TRIPOS>SUBSTRUCTURE
     1 KR9         1 TEMP              0 ****  ****    0 ROOT
