@<TRIPOS>MOLECULE
KR9
   65    69     1     0     0
SMALL
abcg2


@<TRIPOS>ATOM
      1 C01         54.1400   -41.1500    33.3070 c3         1 KR9       0.093300
      2 C03         52.9370   -40.1000    31.4650 c          1 KR9       0.591100
      3 C04         51.6580   -40.1190    30.6330 c3         1 KR9       0.032700
      4 C07         50.1970   -36.9870    29.1670 ca         1 KR9       0.334500
      5 C09         51.3450   -35.6000    27.7620 ca         1 KR9       0.315000
      6 C10         50.2020   -34.8050    27.5460 ca         1 KR9      -0.136000
      7 C11         50.3090   -33.7170    26.6500 ca         1 KR9       0.371900
      8 C13         52.4990   -34.1940    26.2220 ca         1 KR9       0.337900
      9 C14         52.5390   -35.2690    27.0720 cp         1 KR9      -0.038000
     10 C15         53.7490   -36.1000    27.2180 cp         1 KR9      -0.065000
     11 C16         54.2580   -36.7780    26.1220 ca         1 KR9      -0.056000
     12 C17         55.3770   -37.5840    26.2570 ca         1 KR9       0.040100
     13 C19         55.5280   -39.4680    24.8770 c3         1 KR9       0.509000
     14 C23         56.0040   -37.7250    27.4780 ca         1 KR9      -0.054000
     15 C24         55.5080   -37.0450    28.5830 ca         1 KR9      -0.189000
     16 C25         54.3920   -36.2220    28.4620 ca         1 KR9       0.188100
     17 C27         54.3950   -35.6630    30.7690 c3         1 KR9       0.139900
     18 C28         49.0120   -35.1510    28.2180 ca         1 KR9      -0.053000
     19 C29         49.0030   -36.2480    29.0330 ca         1 KR9      -0.121000
     20 C31         51.8150   -41.1640    29.5030 c3         1 KR9      -0.014200
     21 C32         50.6740   -41.1400    28.5430 cc         1 KR9      -0.153400
     22 C33         49.5110   -41.8520    28.6340 cd         1 KR9      -0.143100
     23 C35         49.2710   -40.5740    26.8250 ca         1 KR9      -0.045200
     24 C36         50.5430   -40.3120    27.3800 ca         1 KR9      -0.094800
     25 C37         51.3790   -39.3820    26.7500 ca         1 KR9      -0.054000
     26 C38         50.9300   -38.7390    25.6140 ca         1 KR9      -0.138000
     27 C39         49.6560   -39.0060    25.0860 ca         1 KR9      -0.091000
     28 C40         48.8130   -39.9280    25.6770 ca         1 KR9      -0.131000
     29 F20         56.0190   -39.8080    23.6950 f          1 KR9      -0.110333
     30 F21         54.2040   -39.6220    24.8400 f          1 KR9      -0.110333
     31 F22         55.9910   -40.3330    25.7840 f          1 KR9      -0.110333
     32 N02         52.9670   -40.9640    32.4840 ns         1 KR9      -0.503900
     33 N05         51.4190   -38.8070    30.1000 ns         1 KR9      -0.464900
     34 N08         51.3130   -36.6740    28.5680 nb         1 KR9      -0.660000
     35 N12         51.4070   -33.4260    26.0110 nb         1 KR9      -0.659000
     36 N34         48.6720   -41.5150    27.6100 na         1 KR9      -0.218700
     37 O18         55.8980   -38.2070    25.1260 os         1 KR9      -0.397100
     38 O26         53.8790   -35.4960    29.4620 os         1 KR9      -0.327100
     39 O30         49.1860   -38.6550    30.5290 o          1 KR9      -0.605100
     40 O41         53.8810   -39.3820    31.1680 o          1 KR9      -0.612100
     41 H011        53.9200   -41.9080    34.0530 h1         1 KR9       0.042033
     42 H013        54.9940   -41.4840    32.7180 h1         1 KR9       0.042033
     43 H012        54.4170   -40.2300    33.8240 h1         1 KR9       0.042033
     44 H041        50.8040   -40.3970    31.2520 h1         1 KR9       0.084700
     45 H111        49.4400   -33.0900    26.4710 h4         1 KR9       0.023100
     46 H131        53.3880   -33.9110    25.6690 h4         1 KR9       0.027100
     47 H161        53.7700   -36.6810    25.1590 ha         1 KR9       0.135000
     48 H231        56.8850   -38.3440    27.5820 ha         1 KR9       0.134000
     49 H241        56.0180   -37.1580    29.5290 ha         1 KR9       0.134000
     50 H272        53.8110   -35.0120    31.4140 h1         1 KR9       0.049700
     51 H273        54.2900   -36.6940    31.1140 h1         1 KR9       0.049700
     52 H271        55.4460   -35.3690    30.8340 h1         1 KR9       0.049700
     53 H281        48.1200   -34.5530    28.0760 ha         1 KR9       0.126000
     54 H291        48.1100   -36.5520    29.5590 ha         1 KR9       0.150000
     55 H311        51.9120   -42.1510    29.9600 hc         1 KR9       0.056200
     56 H312        52.7520   -40.9690    28.9730 hc         1 KR9       0.056200
     57 H331        49.2150   -42.5850    29.3680 h4         1 KR9       0.209000
     58 H371        52.3600   -39.1590    27.1530 ha         1 KR9       0.119000
     59 H381        51.5630   -38.0110    25.1240 ha         1 KR9       0.110000
     60 H391        49.3300   -38.4830    24.1970 ha         1 KR9       0.109000
     61 H401        47.8340   -40.1380    25.2650 ha         1 KR9       0.112000
     62 H021        52.1480   -41.5130    32.6890 hn         1 KR9       0.319500
     63 H051        52.1640   -38.3610    29.5810 hn         1 KR9       0.356500
     64 H341        47.7610   -41.9150    27.4550 hn         1 KR9       0.350000
     65 C06         50.2100   -38.2410    30.0070 c          1 KR9       0.514600
@<TRIPOS>BOND
     1     1    32 1   
     2     1    41 1   
     3     1    42 1   
     4     1    43 1   
     5     2     3 1   
     6     2    32 1   
     7     2    40 2   
     8     3    20 1   
     9     3    33 1   
    10     3    44 1   
    11     4    19 ar  
    12     4    34 ar  
    13     4    65 1   
    14     5     6 ar  
    15     5     9 ar  
    16     5    34 ar  
    17     6     7 ar  
    18     6    18 ar  
    19     7    35 ar  
    20     7    45 1   
    21     8     9 ar  
    22     8    35 ar  
    23     8    46 1   
    24     9    10 1   
    25    10    11 ar  
    26    10    16 ar  
    27    11    12 ar  
    28    11    47 1   
    29    12    14 ar  
    30    12    37 1   
    31    13    29 1   
    32    13    30 1   
    33    13    31 1   
    34    13    37 1   
    35    14    15 ar  
    36    14    48 1   
    37    15    16 ar  
    38    15    49 1   
    39    16    38 1   
    40    17    38 1   
    41    17    50 1   
    42    17    51 1   
    43    17    52 1   
    44    18    19 ar  
    45    18    53 1   
    46    19    54 1   
    47    20    21 1   
    48    20    55 1   
    49    20    56 1   
    50    21    22 2   
    51    21    24 1   
    52    22    36 1   
    53    22    57 1   
    54    23    24 ar  
    55    23    28 ar  
    56    23    36 1   
    57    24    25 ar  
    58    25    26 ar  
    59    25    58 1   
    60    26    27 ar  
    61    26    59 1   
    62    27    28 ar  
    63    27    60 1   
    64    28    61 1   
    65    32    62 1   
    66    33    63 1   
    67    33    65 1   
    68    36    64 1   
    69    39    65 2   
@<TRIPOS>SUBSTRUCTURE
     1 KR9         1 TEMP              0 ****  ****    0 ROOT
