@<TRIPOS>MOLECULE
KRA
   33    34     1     0     0
SMALL
abcg2


@<TRIPOS>ATOM
      1 C1           0.0130    -0.1220     5.3650 ca         1 KRA       0.144100
      2 O1          -0.0050    -0.5210     6.6530 oh         1 KRA      -0.532100
      3 C2           1.1930     0.1520     4.6780 ca         1 KRA      -0.173500
      4 C3           1.1440     0.5590     3.3530 ca         1 KRA      -0.055500
      5 C4          -0.0650     0.7050     2.6840 ca         1 KRA      -0.117300
      6 C5          -1.2360     0.4290     3.3850 ca         1 KRA      -0.055500
      7 C6          -1.2080     0.0230     4.7090 ca         1 KRA      -0.173500
      8 C7          -0.1040     1.1100     1.2430 c3         1 KRA      -0.118100
      9 C8          -0.1170    -0.0690     0.3060 c          1 KRA       0.468100
     10 O2          -0.1490    -1.2180     0.6630 o          1 KRA      -0.479100
     11 C9          -0.0890     0.2470    -1.2000 c          1 KRA       0.469100
     12 O3          -0.0850     1.3950    -1.5620 o          1 KRA      -0.478100
     13 C10         -0.0700    -0.9360    -2.1320 c3         1 KRA      -0.126100
     14 C11         -0.0110    -0.5340    -3.5740 ca         1 KRA      -0.078300
     15 C12          1.2150    -0.3470    -4.2060 ca         1 KRA      -0.095500
     16 C13          1.2740     0.0480    -5.5360 ca         1 KRA      -0.108000
     17 C14          0.1030     0.2630    -6.2510 ca         1 KRA      -0.104000
     18 C15         -1.1250     0.0790    -5.6290 ca         1 KRA      -0.108000
     19 C16         -1.1790    -0.3160    -4.2990 ca         1 KRA      -0.095500
     20 HO1          0.8940    -0.6070     6.9890 ho         1 KRA       0.465000
     21 H2           2.1510     0.0480     5.1750 ha         1 KRA       0.121500
     22 H3           2.0740     0.7690     2.8370 ha         1 KRA       0.111500
     23 H5          -2.1950     0.5400     2.8930 ha         1 KRA       0.111500
     24 H6          -2.1300    -0.1850     5.2370 ha         1 KRA       0.121500
     25 H71         -0.9850     1.7220     1.0230 hc         1 KRA       0.082200
     26 H72          0.7510     1.7420     0.9840 hc         1 KRA       0.082200
     27 H101         0.7810    -1.5690    -1.8610 hc         1 KRA       0.083200
     28 H102        -0.9550    -1.5450    -1.9250 hc         1 KRA       0.083200
     29 H12          2.1340    -0.5170    -3.6570 ha         1 KRA       0.110000
     30 H13          2.2350     0.1880    -6.0140 ha         1 KRA       0.113000
     31 H14          0.1470     0.5680    -7.2890 ha         1 KRA       0.113000
     32 H15         -2.0430     0.2400    -6.1800 ha         1 KRA       0.113000
     33 H16         -2.1410    -0.4630    -3.8220 ha         1 KRA       0.110000
@<TRIPOS>BOND
     1     1     2 1   
     2     1     3 ar  
     3     1     7 ar  
     4     2    20 1   
     5     3     4 ar  
     6     3    21 1   
     7     4     5 ar  
     8     4    22 1   
     9     5     6 ar  
    10     5     8 1   
    11     6     7 ar  
    12     6    23 1   
    13     7    24 1   
    14     8     9 1   
    15     8    25 1   
    16     8    26 1   
    17     9    10 2   
    18     9    11 1   
    19    11    12 2   
    20    11    13 1   
    21    13    14 1   
    22    13    27 1   
    23    13    28 1   
    24    14    15 ar  
    25    14    19 ar  
    26    15    16 ar  
    27    15    29 1   
    28    16    17 ar  
    29    16    30 1   
    30    17    18 ar  
    31    17    31 1   
    32    18    19 ar  
    33    18    32 1   
    34    19    33 1   
@<TRIPOS>SUBSTRUCTURE
     1 KRA         1 TEMP              0 ****  ****    0 ROOT
