@<TRIPOS>MOLECULE
KRA
   33    34     1     0     0
SMALL
No Charge or Current Charge


@<TRIPOS>ATOM
      1 C1           0.1270    -0.0890     5.0290 ca         1 KRA       0.144100
      2 O1           0.3800    -0.5260     6.2940 oh         1 KRA      -0.532100
      3 C2           1.1780     0.3410     4.2030 ca         1 KRA      -0.173500
      4 C3           0.9090     0.7900     2.8980 ca         1 KRA      -0.055500
      5 C4          -0.4140     0.8120     2.4140 ca         1 KRA      -0.117300
      6 C5          -1.4630     0.3770     3.2470 ca         1 KRA      -0.055500
      7 C6          -1.1910    -0.0710     4.5510 ca         1 KRA      -0.173500
      8 C7          -0.7060     1.2920     0.9950 c3         1 KRA      -0.118100
      9 C8          -0.6930     0.1090     0.0080 c          1 KRA       0.468100
     10 O2          -1.6670    -0.6360    -0.0870 o          1 KRA      -0.479100
     11 C9           0.6260    -0.1200    -0.8520 c          1 KRA       0.469100
     12 O3           1.6220     0.5890    -0.7120 o          1 KRA      -0.478100
     13 C10          0.6110    -1.2500    -1.8970 c3         1 KRA      -0.126100
     14 C11          0.3320    -0.6860    -3.2860 ca         1 KRA      -0.078300
     15 C12          1.3940    -0.2570    -4.1060 ca         1 KRA      -0.095500
     16 C13          1.1360     0.2700    -5.3830 ca         1 KRA      -0.108000
     17 C14         -0.1860     0.3720    -5.8480 ca         1 KRA      -0.104000
     18 C15         -1.2500    -0.0530    -5.0340 ca         1 KRA      -0.108000
     19 C16         -0.9920    -0.5800    -3.7560 ca         1 KRA      -0.095500
     20 HO1          1.3460    -0.4680     6.4550 ho         1 KRA       0.465000
     21 H2           2.2040     0.3300     4.5650 ha         1 KRA       0.121500
     22 H3           1.7310     1.1200     2.2650 ha         1 KRA       0.111500
     23 H5          -2.4890     0.3840     2.8840 ha         1 KRA       0.111500
     24 H6          -2.0040    -0.4060     5.1900 ha         1 KRA       0.121500
     25 H71         -1.6950     1.7630     0.9640 hc         1 KRA       0.082200
     26 H72          0.0500     2.0300     0.7040 hc         1 KRA       0.082200
     27 H101         1.5890    -1.7470    -1.8910 hc         1 KRA       0.083200
     28 H102        -0.1650    -1.9820    -1.6480 hc         1 KRA       0.083200
     29 H12          2.4210    -0.3280    -3.7530 ha         1 KRA       0.110000
     30 H13          1.9600     0.6010    -6.0120 ha         1 KRA       0.113000
     31 H14         -0.3870     0.7800    -6.8360 ha         1 KRA       0.113000
     32 H15         -2.2740     0.0260    -5.3920 ha         1 KRA       0.113000
     33 H16         -1.8220    -0.9060    -3.1340 ha         1 KRA       0.110000
@<TRIPOS>BOND
     1     1     2 1   
     2     1     3 ar  
     3     1     7 ar  
     4     2    20 1   
     5     3     4 ar  
     6     3    21 1   
     7     4     5 ar  
     8     4    22 1   
     9     5     6 ar  
    10     5     8 1   
    11     6     7 ar  
    12     6    23 1   
    13     7    24 1   
    14     8     9 1   
    15     8    25 1   
    16     8    26 1   
    17     9    10 2   
    18     9    11 1   
    19    11    12 2   
    20    11    13 1   
    21    13    14 1   
    22    13    27 1   
    23    13    28 1   
    24    14    15 ar  
    25    14    19 ar  
    26    15    16 ar  
    27    15    29 1   
    28    16    17 ar  
    29    16    30 1   
    30    17    18 ar  
    31    17    31 1   
    32    18    19 ar  
    33    18    32 1   
    34    19    33 1   
@<TRIPOS>SUBSTRUCTURE
     1 KRA         1 TEMP              0 ****  ****    0 ROOT
