@<TRIPOS>MOLECULE
KRB
   36    38     1     0     0
SMALL
bcc


@<TRIPOS>ATOM
      1 C1           0.3230    -0.4390    -5.5790 ca         1 KRB      -0.145000
      2 C3           1.6960    -0.4070    -5.4290 ca         1 KRB      -0.109000
      3 C5           2.2900    -0.0430    -4.2090 ca         1 KRB      -0.156000
      4 C7           1.5180     0.2940    -3.1150 ca         1 KRB      -0.077000
      5 C9           0.1240     0.2710    -3.2370 ca         1 KRB      -0.084800
      6 C10         -0.4530    -0.0960    -4.4720 ca         1 KRB      -0.045200
      7 N11         -1.8070    -0.0350    -4.3210 na         1 KRB      -0.170400
      8 C13         -2.1040     0.3560    -3.0460 cc         1 KRB      -0.094100
      9 C15         -0.9530     0.5570    -2.3390 cd         1 KRB      -0.143400
     10 C16         -0.8350     0.9710    -0.9170 c3         1 KRB      -0.091200
     11 C19         -0.4500    -0.1590     0.0020 c          1 KRB       0.466100
     12 O21         -0.2640    -1.2920    -0.3580 o          1 KRB      -0.477100
     13 C23         -0.2890     0.1880     1.4930 c          1 KRB       0.467100
     14 O24         -0.4080     1.3310     1.8500 o          1 KRB      -0.481100
     15 C25          0.0110    -0.9630     2.4190 c3         1 KRB      -0.127100
     16 C28          0.1880    -0.5280     3.8410 ca         1 KRB      -0.077300
     17 C29         -0.9140    -0.3690     4.6780 ca         1 KRB      -0.114000
     18 C31         -0.7520     0.0550     5.9890 ca         1 KRB      -0.126000
     19 C33          0.5170     0.3280     6.4820 ca         1 KRB      -0.123000
     20 C35          1.6220     0.1740     5.6550 ca         1 KRB      -0.126000
     21 C37          1.4560    -0.2510     4.3430 ca         1 KRB      -0.114000
     22 H1          -0.1320    -0.7220    -6.5200 ha         1 KRB       0.130000
     23 H3           2.3260    -0.6690    -6.2690 ha         1 KRB       0.128000
     24 H5           3.3690    -0.0290    -4.1300 ha         1 KRB       0.129000
     25 H7           1.9860     0.5760    -2.1790 ha         1 KRB       0.129000
     26 H11         -2.4880    -0.2320    -5.0350 hn         1 KRB       0.300700
     27 H13         -3.1290     0.4670    -2.7300 h4         1 KRB       0.161000
     28 H161        -1.7750     1.3960    -0.5490 hc         1 KRB       0.079200
     29 H162        -0.0970     1.7720    -0.7930 hc         1 KRB       0.079200
     30 H251        -0.8010    -1.6910     2.3200 hc         1 KRB       0.082700
     31 H252         0.9030    -1.4750     2.0460 hc         1 KRB       0.082700
     32 H29         -1.9070    -0.5850     4.3030 ha         1 KRB       0.127500
     33 H31         -1.6190     0.1710     6.6280 ha         1 KRB       0.130500
     34 H33          0.6460     0.6560     7.5050 ha         1 KRB       0.130000
     35 H35          2.6150     0.3810     6.0310 ha         1 KRB       0.130500
     36 H37          2.3230    -0.3720     3.7050 ha         1 KRB       0.127500
@<TRIPOS>BOND
     1     1     2 ar  
     2     1     6 ar  
     3     1    22 1   
     4     2     3 ar  
     5     2    23 1   
     6     3     4 ar  
     7     3    24 1   
     8     4     5 ar  
     9     4    25 1   
    10     5     6 ar  
    11     5     9 1   
    12     6     7 1   
    13     7     8 1   
    14     7    26 1   
    15     8     9 2   
    16     8    27 1   
    17     9    10 1   
    18    10    11 1   
    19    10    28 1   
    20    10    29 1   
    21    11    12 2   
    22    11    13 1   
    23    13    14 2   
    24    13    15 1   
    25    15    16 1   
    26    15    30 1   
    27    15    31 1   
    28    16    17 ar  
    29    16    21 ar  
    30    17    18 ar  
    31    17    32 1   
    32    18    19 ar  
    33    18    33 1   
    34    19    20 ar  
    35    19    34 1   
    36    20    21 ar  
    37    20    35 1   
    38    21    36 1   
@<TRIPOS>SUBSTRUCTURE
     1 KRB         1 TEMP              0 ****  ****    0 ROOT
