@<TRIPOS>MOLECULE
KRB
   36    38     1     0     0
SMALL
No Charge or Current Charge


@<TRIPOS>ATOM
      1 C1           0.3980    -1.0140    -4.8390 ca         1 KRB      -0.127000
      2 C3           1.7830    -0.9160    -4.5800 ca         1 KRB      -0.091000
      3 C5           2.2520    -0.1910    -3.4570 ca         1 KRB      -0.138000
      4 C7           1.3420     0.4420    -2.5830 ca         1 KRB      -0.059000
      5 C9          -0.0250     0.3200    -2.8690 ca         1 KRB      -0.084800
      6 C10         -0.4790    -0.3770    -3.9530 ca         1 KRB      -0.045200
      7 N11         -1.8610    -0.3220    -3.9840 na         1 KRB      -0.220700
      8 C13         -2.3390     0.4290    -2.8880 cc         1 KRB      -0.144100
      9 C15         -1.2000     0.8270    -2.1970 cd         1 KRB      -0.143400
     10 C16         -1.1940     1.6360    -0.9230 c3         1 KRB      -0.091200
     11 C19         -1.0820     0.7490     0.3290 c          1 KRB       0.466100
     12 O21         -2.0560     0.1310     0.7590 o          1 KRB      -0.477100
     13 C23          0.3400     0.6450     1.0240 c          1 KRB       0.467100
     14 O24          1.1440     1.5750     0.9990 o          1 KRB      -0.481100
     15 C25          0.6720    -0.6700     1.7490 c3         1 KRB      -0.127100
     16 C28          0.5290    -0.5070     3.2590 ca         1 KRB      -0.077300
     17 C29         -0.6870    -0.8220     3.8970 ca         1 KRB      -0.096000
     18 C31         -0.8180    -0.6660     5.2880 ca         1 KRB      -0.108000
     19 C33          0.2650    -0.1940     6.0490 ca         1 KRB      -0.105000
     20 C35          1.4790     0.1230     5.4170 ca         1 KRB      -0.108000
     21 C37          1.6110    -0.0330     4.0260 ca         1 KRB      -0.096000
     22 H1           0.0270    -1.5680    -5.6990 ha         1 KRB       0.112000
     23 H3           2.4930    -1.3990    -5.2480 ha         1 KRB       0.110000
     24 H5           3.3210    -0.1190    -3.2680 ha         1 KRB       0.111000
     25 H7           1.6940     1.0040    -1.7220 ha         1 KRB       0.111000
     26 H11         -2.4420    -0.7620    -4.6910 hn         1 KRB       0.351000
     27 H13         -3.3940     0.6020    -2.6960 h4         1 KRB       0.211000
     28 H161        -2.1270     2.2080    -0.8560 hc         1 KRB       0.079200
     29 H162        -0.3510     2.3350    -0.9590 hc         1 KRB       0.079200
     30 H251        -0.0060    -1.4600     1.4030 hc         1 KRB       0.082700
     31 H252         1.7030    -0.9520     1.5060 hc         1 KRB       0.082700
     32 H29         -1.5320    -1.1870     3.3180 ha         1 KRB       0.109500
     33 H31         -1.7590    -0.9110     5.7760 ha         1 KRB       0.112500
     34 H33          0.1630    -0.0730     7.1250 ha         1 KRB       0.112000
     35 H35          2.3180     0.4890     6.0050 ha         1 KRB       0.112500
     36 H37          2.5540     0.2170     3.5460 ha         1 KRB       0.109500
@<TRIPOS>BOND
     1     1     2 ar  
     2     1     6 ar  
     3     1    22 1   
     4     2     3 ar  
     5     2    23 1   
     6     3     4 ar  
     7     3    24 1   
     8     4     5 ar  
     9     4    25 1   
    10     5     6 ar  
    11     5     9 1   
    12     6     7 1   
    13     7     8 1   
    14     7    26 1   
    15     8     9 2   
    16     8    27 1   
    17     9    10 1   
    18    10    11 1   
    19    10    28 1   
    20    10    29 1   
    21    11    12 2   
    22    11    13 1   
    23    13    14 2   
    24    13    15 1   
    25    15    16 1   
    26    15    30 1   
    27    15    31 1   
    28    16    17 ar  
    29    16    21 ar  
    30    17    18 ar  
    31    17    32 1   
    32    18    19 ar  
    33    18    33 1   
    34    19    20 ar  
    35    19    34 1   
    36    20    21 ar  
    37    20    35 1   
    38    21    36 1   
@<TRIPOS>SUBSTRUCTURE
     1 KRB         1 TEMP              0 ****  ****    0 ROOT
