@<TRIPOS>MOLECULE
KRC
   65    69     1     0     0
SMALL
abcg2


@<TRIPOS>ATOM
      1 C1          -3.9340    -1.5140     1.0590 ce         1 KRC      -0.407400
      2 C2          -2.9620    -2.4170     0.6250 cf         1 KRC       0.306100
      3 C3          -1.7580    -2.0270    -0.0660 cf         1 KRC      -0.357000
      4 C4          -1.6780    -0.7580    -0.4730 c2         1 KRC       0.182900
      5 C5          -2.8250     0.1840    -0.4230 c5         1 KRC      -0.104500
      6 C6          -3.8090    -0.1310     0.6810 c          1 KRC       0.645300
      7 O7          -0.5700    -0.1440    -0.9100 os         1 KRC      -0.194200
      8 C8          -0.7850     1.2140    -0.8080 ca         1 KRC       0.186100
      9 C9          -2.0810     1.4860    -0.4090 ca         1 KRC      -0.304300
     10 C10          0.1720     2.1600    -1.0910 ca         1 KRC      -0.234600
     11 C11         -0.2480     3.5000    -0.9430 ca         1 KRC       0.253100
     12 C12         -1.5370     3.8140    -0.5240 ca         1 KRC      -0.284000
     13 C13         -2.4730     2.8070    -0.2600 ca         1 KRC       0.283100
     14 O14         -4.5320     0.7800     1.0820 o          1 KRC      -0.575100
     15 O15         -3.6990     3.1570     0.1240 oh         1 KRC      -0.540100
     16 O16          0.6890     4.4200    -1.1910 os         1 KRC      -0.314100
     17 C17          1.5340     1.8030    -1.5890 c          1 KRC       0.639700
     18 N18          2.2140     0.9680    -0.7900 ns         1 KRC      -0.502900
     19 C19         -3.6320     0.0500    -1.7500 c3         1 KRC      -0.071100
     20 O20          1.9720     2.2190    -2.6500 o          1 KRC      -0.586100
     21 C21         -5.0620    -1.9780     1.9020 c          1 KRC       0.610300
     22 O22         -3.0700    -3.6810     0.9650 oh         1 KRC      -0.473100
     23 C23         -5.6140    -1.0550     2.9580 c3         1 KRC      -0.183100
     24 O24         -5.5320    -3.0900     1.7640 o          1 KRC      -0.528100
     25 C25          0.3690     5.7910    -1.0350 c3         1 KRC       0.144900
     26 C26          3.4740     0.3600    -1.1750 c3         1 KRC       0.149300
     27 C27          3.7370    -0.8540    -0.3220 ca         1 KRC      -0.099300
     28 C28          3.2620    -2.0900    -0.7090 ca         1 KRC      -0.051300
     29 C29          3.5330    -3.2220     0.0950 ca         1 KRC      -0.116000
     30 C30          4.2370    -3.1190     1.2590 ca         1 KRC      -0.088000
     31 C31          4.7050    -1.8630     1.7020 ca         1 KRC      -0.044000
     32 C32          4.4450    -0.7120     0.9100 ca         1 KRC      -0.019000
     33 C33          5.4130    -1.7340     2.9200 ca         1 KRC      -0.097000
     34 C34          5.8430    -0.5110     3.3550 ca         1 KRC      -0.107000
     35 C35          5.5740     0.6370     2.5850 ca         1 KRC      -0.103000
     36 C36          4.8960     0.5410     1.3990 ca         1 KRC      -0.106000
     37 C37          2.4910    -2.3080    -1.9850 c3         1 KRC      -0.039100
     38 C38          3.4070    -2.6500    -3.1590 c3         1 KRC      -0.086100
     39 H3          -0.9270    -2.7180    -0.1360 ha         1 KRC       0.215000
     40 H12         -1.8420     4.8410    -0.3790 ha         1 KRC       0.143000
     41 HO15        -4.1680     2.3610     0.4670 ho         1 KRC       0.520000
     42 HN18         1.8250     0.7220     0.1060 hn         1 KRC       0.322500
     43 H19         -4.1050    -0.9290    -1.8270 hc         1 KRC       0.059033
     44 H19A        -4.4040     0.8170    -1.7830 hc         1 KRC       0.059033
     45 H19B        -2.9720     0.1880    -2.6040 hc         1 KRC       0.059033
     46 HO22        -2.3100    -4.1950     0.6590 ho         1 KRC       0.483000
     47 H23         -6.3240    -0.3550     2.5160 hc         1 KRC       0.062700
     48 H23A        -6.1430    -1.6480     3.7030 hc         1 KRC       0.062700
     49 H23B        -4.8410    -0.4650     3.4460 hc         1 KRC       0.062700
     50 H25          1.2680     6.3440    -1.2940 h1         1 KRC       0.049033
     51 H25A        -0.4390     6.0970    -1.7020 h1         1 KRC       0.049033
     52 H25B         0.0910     6.0260    -0.0050 h1         1 KRC       0.049033
     53 H26          3.4270     0.0850    -2.2280 h1         1 KRC       0.059700
     54 H26A         4.2910     1.0800    -1.0950 h1         1 KRC       0.059700
     55 H29          3.1670    -4.1890    -0.2280 ha         1 KRC       0.112000
     56 H30          4.4350    -3.9990     1.8590 ha         1 KRC       0.115000
     57 H33          5.6050    -2.6250     3.5060 ha         1 KRC       0.113000
     58 H34          6.3840    -0.4210     4.2880 ha         1 KRC       0.115000
     59 H35          5.9020     1.6070     2.9360 ha         1 KRC       0.114000
     60 H36          4.7020     1.4470     0.8410 ha         1 KRC       0.120000
     61 H37          1.7860    -3.1280    -1.8320 hc         1 KRC       0.049200
     62 H37A         1.8820    -1.4370    -2.2290 hc         1 KRC       0.049200
     63 H38          2.8290    -2.8030    -4.0700 hc         1 KRC       0.037367
     64 H38A         4.1250    -1.8510    -3.3490 hc         1 KRC       0.037367
     65 H38B         3.9730    -3.5610    -2.9630 hc         1 KRC       0.037367
@<TRIPOS>BOND
     1     1     2 2   
     2     1     6 1   
     3     1    21 1   
     4     2     3 1   
     5     2    22 1   
     6     3     4 2   
     7     3    39 1   
     8     4     5 1   
     9     4     7 1   
    10     5     6 1   
    11     5     9 1   
    12     5    19 1   
    13     6    14 2   
    14     7     8 1   
    15     8     9 ar  
    16     8    10 ar  
    17     9    13 ar  
    18    10    11 ar  
    19    10    17 1   
    20    11    12 ar  
    21    11    16 1   
    22    12    13 ar  
    23    12    40 1   
    24    13    15 1   
    25    15    41 1   
    26    16    25 1   
    27    17    18 1   
    28    17    20 2   
    29    18    26 1   
    30    18    42 1   
    31    19    43 1   
    32    19    44 1   
    33    19    45 1   
    34    21    23 1   
    35    21    24 2   
    36    22    46 1   
    37    23    47 1   
    38    23    48 1   
    39    23    49 1   
    40    25    50 1   
    41    25    51 1   
    42    25    52 1   
    43    26    27 1   
    44    26    53 1   
    45    26    54 1   
    46    27    28 ar  
    47    27    32 ar  
    48    28    29 ar  
    49    28    37 1   
    50    29    30 ar  
    51    29    55 1   
    52    30    31 ar  
    53    30    56 1   
    54    31    32 ar  
    55    31    33 ar  
    56    32    36 ar  
    57    33    34 ar  
    58    33    57 1   
    59    34    35 ar  
    60    34    58 1   
    61    35    36 ar  
    62    35    59 1   
    63    36    60 1   
    64    37    38 1   
    65    37    61 1   
    66    37    62 1   
    67    38    63 1   
    68    38    64 1   
    69    38    65 1   
@<TRIPOS>SUBSTRUCTURE
     1 KRC         1 TEMP              0 ****  ****    0 ROOT
