@<TRIPOS>MOLECULE
KRC
   65    69     1     0     0
SMALL
No Charge or Current Charge


@<TRIPOS>ATOM
      1 C1          -3.2710    -0.7770     2.6160 ce         1 KRC      -0.407400
      2 C2          -2.1660    -1.5880     2.5950 cf         1 KRC       0.306100
      3 C3          -1.0110    -1.2900     1.7820 cf         1 KRC      -0.357000
      4 C4          -1.1200    -0.3980     0.7970 c2         1 KRC       0.182900
      5 C5          -2.4440     0.2420     0.4260 c5         1 KRC      -0.104500
      6 C6          -3.3090     0.4270     1.7070 c          1 KRC       0.645300
      7 O7          -0.1090     0.1850     0.0850 os         1 KRC      -0.194200
      8 C8          -0.5430     1.3500    -0.4750 ca         1 KRC       0.186100
      9 C9          -1.8920     1.5060    -0.2390 ca         1 KRC      -0.304300
     10 C10          0.2410     2.3180    -1.1330 ca         1 KRC      -0.234600
     11 C11         -0.4280     3.4910    -1.5680 ca         1 KRC       0.253100
     12 C12         -1.8140     3.6570    -1.3150 ca         1 KRC      -0.284000
     13 C13         -2.5430     2.6710    -0.6440 ca         1 KRC       0.283100
     14 O14         -3.9820     1.4290     1.9120 o          1 KRC      -0.575100
     15 O15         -3.8550     2.8660    -0.3680 oh         1 KRC      -0.540100
     16 O16          0.2830     4.4580    -2.2550 os         1 KRC      -0.314100
     17 C17          1.7240     2.1220    -1.3390 c          1 KRC       0.639700
     18 N18          2.1630     0.8230    -1.2870 ns         1 KRC      -0.502900
     19 C19         -3.2180    -0.6340    -0.5950 c3         1 KRC      -0.071100
     20 O20          2.5180     3.0400    -1.4850 o          1 KRC      -0.586100
     21 C21         -4.4310    -1.0310     3.5450 c          1 KRC       0.610300
     22 O22         -2.0310    -2.6820     3.3490 oh         1 KRC      -0.473100
     23 C23         -5.7750    -0.3350     3.3060 c3         1 KRC      -0.183100
     24 O24         -4.3610    -1.8100     4.4860 o          1 KRC      -0.528100
     25 C25         -0.3150     5.6750    -2.7350 c3         1 KRC       0.144900
     26 C26          3.5590     0.4070    -1.2410 c3         1 KRC       0.149300
     27 C27          3.6550    -1.0730    -0.8430 ca         1 KRC      -0.099300
     28 C28          3.9780    -2.0660    -1.8120 ca         1 KRC      -0.051300
     29 C29          4.0540    -3.4170    -1.4270 ca         1 KRC      -0.116000
     30 C30          3.7980    -3.8040    -0.1070 ca         1 KRC      -0.088000
     31 C31          3.4590    -2.8420     0.8560 ca         1 KRC      -0.044000
     32 C32          3.3860    -1.4720     0.5000 ca         1 KRC      -0.019000
     33 C33          3.1910    -3.2570     2.1740 ca         1 KRC      -0.097000
     34 C34          2.8440    -2.3170     3.1560 ca         1 KRC      -0.107000
     35 C35          2.7660    -0.9590     2.8210 ca         1 KRC      -0.103000
     36 C36          3.0340    -0.5370     1.5070 ca         1 KRC      -0.106000
     37 C37          4.2490    -1.7370    -3.2830 c3         1 KRC      -0.039100
     38 C38          5.7120    -1.3190    -3.5340 c3         1 KRC      -0.086100
     39 H3          -0.0340    -1.7020     2.0380 ha         1 KRC       0.215000
     40 H12         -2.3420     4.5500    -1.6270 ha         1 KRC       0.143000
     41 HO15        -4.0440     2.3490     0.4550 ho         1 KRC       0.520000
     42 HN18         1.4540     0.1170    -1.1340 hn         1 KRC       0.322500
     43 H19         -3.4850    -1.6090    -0.1700 hc         1 KRC       0.059033
     44 H19A        -4.1460    -0.1440    -0.9160 hc         1 KRC       0.059033
     45 H19B        -2.6160    -0.8200    -1.4930 hc         1 KRC       0.059033
     46 HO22        -1.1820    -3.0970     3.1010 ho         1 KRC       0.483000
     47 H23         -5.9830    -0.2620     2.2330 hc         1 KRC       0.062700
     48 H23A        -6.5930    -0.8240     3.8480 hc         1 KRC       0.062700
     49 H23B        -5.6960     0.7050     3.6370 hc         1 KRC       0.062700
     50 H25          0.4350     6.2890    -3.2480 h1         1 KRC       0.049033
     51 H25A        -1.1210     5.4600    -3.4480 h1         1 KRC       0.049033
     52 H25B        -0.7240     6.2630    -1.9040 h1         1 KRC       0.049033
     53 H26          4.0190     0.6080    -2.2140 h1         1 KRC       0.059700
     54 H26A         4.1000     1.0220    -0.5100 h1         1 KRC       0.059700
     55 H29          4.3090    -4.1790    -2.1590 ha         1 KRC       0.112000
     56 H30          3.8580    -4.8550     0.1650 ha         1 KRC       0.115000
     57 H33          3.2490    -4.3100     2.4400 ha         1 KRC       0.113000
     58 H34          2.6370    -2.6410     4.1730 ha         1 KRC       0.115000
     59 H35          2.4950    -0.2280     3.5800 ha         1 KRC       0.114000
     60 H36          2.9580     0.5250     1.2960 ha         1 KRC       0.120000
     61 H37          4.0320    -2.6120    -3.9080 hc         1 KRC       0.049200
     62 H37A         3.5710    -0.9560    -3.6470 hc         1 KRC       0.049200
     63 H38          5.8680    -1.0920    -4.5950 hc         1 KRC       0.037367
     64 H38A         5.9740    -0.4280    -2.9500 hc         1 KRC       0.037367
     65 H38B         6.3960    -2.1270    -3.2510 hc         1 KRC       0.037367
@<TRIPOS>BOND
     1     1     2 2   
     2     1     6 1   
     3     1    21 1   
     4     2     3 1   
     5     2    22 1   
     6     3     4 2   
     7     3    39 1   
     8     4     5 1   
     9     4     7 1   
    10     5     6 1   
    11     5     9 1   
    12     5    19 1   
    13     6    14 2   
    14     7     8 1   
    15     8     9 ar  
    16     8    10 ar  
    17     9    13 ar  
    18    10    11 ar  
    19    10    17 1   
    20    11    12 ar  
    21    11    16 1   
    22    12    13 ar  
    23    12    40 1   
    24    13    15 1   
    25    15    41 1   
    26    16    25 1   
    27    17    18 1   
    28    17    20 2   
    29    18    26 1   
    30    18    42 1   
    31    19    43 1   
    32    19    44 1   
    33    19    45 1   
    34    21    23 1   
    35    21    24 2   
    36    22    46 1   
    37    23    47 1   
    38    23    48 1   
    39    23    49 1   
    40    25    50 1   
    41    25    51 1   
    42    25    52 1   
    43    26    27 1   
    44    26    53 1   
    45    26    54 1   
    46    27    28 ar  
    47    27    32 ar  
    48    28    29 ar  
    49    28    37 1   
    50    29    30 ar  
    51    29    55 1   
    52    30    31 ar  
    53    30    56 1   
    54    31    32 ar  
    55    31    33 ar  
    56    32    36 ar  
    57    33    34 ar  
    58    33    57 1   
    59    34    35 ar  
    60    34    58 1   
    61    35    36 ar  
    62    35    59 1   
    63    36    60 1   
    64    37    38 1   
    65    37    61 1   
    66    37    62 1   
    67    38    63 1   
    68    38    64 1   
    69    38    65 1   
@<TRIPOS>SUBSTRUCTURE
     1 KRC         1 TEMP              0 ****  ****    0 ROOT
