@<TRIPOS>MOLECULE
KRD
   44    46     1     0     0
SMALL
abcg2


@<TRIPOS>ATOM
      1 CL           0.8040     4.7080    -0.0410 cl         1 KRD      -0.203000
      2 C17          2.1030     3.5680    -0.1580 ca         1 KRD       0.100000
      3 C16          3.3910     4.0250    -0.3900 ca         1 KRD      -0.081000
      4 C15          4.4220     3.1010    -0.4800 ca         1 KRD      -0.121000
      5 C14          4.1700     1.7460    -0.3380 ca         1 KRD      -0.058000
      6 C18          1.8300     2.2190    -0.0170 ca         1 KRD      -0.055000
      7 C13          2.8700     1.2970    -0.1080 cp         1 KRD      -0.153500
      8 C3           2.5910    -0.1470     0.0390 cp         1 KRD       0.257500
      9 N            3.6240    -0.9760     0.0540 nb         1 KRD      -0.258000
     10 N1           1.3230    -0.5150     0.1450 nb         1 KRD      -0.276000
     11 C4           1.1190    -1.8200     0.2790 ca         1 KRD       0.414900
     12 N2           2.0960    -2.7390     0.3110 nb         1 KRD      -0.284000
     13 C2           3.3210    -2.2680     0.1940 ca         1 KRD       0.206300
     14 C1           4.4540    -3.2420     0.1720 c3         1 KRD      -0.122700
     15 C            4.9160    -3.5030    -1.2620 c3         1 KRD      -0.086100
     16 N3          -0.1280    -2.3160     0.4010 nu         1 KRD      -0.917900
     17 C5          -1.3750    -1.6870     0.4390 ca         1 KRD       0.311000
     18 C10         -1.6150    -0.3700     0.0500 ca         1 KRD      -0.143000
     19 C9          -2.9040     0.1430     0.1190 ca         1 KRD      -0.066500
     20 C8          -3.9780    -0.6180     0.5600 ca         1 KRD      -0.092300
     21 C7          -3.7270    -1.9360     0.9330 ca         1 KRD      -0.066500
     22 C6          -2.4500    -2.4620     0.8790 ca         1 KRD      -0.143000
     23 C11         -5.3630    -0.0500     0.6100 c3         1 KRD      -0.110100
     24 C12         -6.1770    -0.3830    -0.6320 c          1 KRD       0.603100
     25 O           -5.9740    -1.3890    -1.2940 o          1 KRD      -0.594100
     26 N4          -7.1480     0.4970    -0.9120 nt         1 KRD      -0.614000
     27 H1           3.5890     5.0830    -0.5000 ha         1 KRD       0.129000
     28 H2           5.4310     3.4460    -0.6630 ha         1 KRD       0.121000
     29 H3           4.9780     1.0320    -0.4080 ha         1 KRD       0.142000
     30 H4           0.8200     1.8820     0.1710 ha         1 KRD       0.148000
     31 H5           5.2820    -2.8370     0.7570 hc         1 KRD       0.067200
     32 H6           4.1350    -4.1740     0.6370 hc         1 KRD       0.067200
     33 H7           4.1080    -3.9160    -1.8670 hc         1 KRD       0.042033
     34 H8           5.2600    -2.5850    -1.7390 hc         1 KRD       0.042033
     35 H9           5.7410    -4.2150    -1.2710 hc         1 KRD       0.042033
     36 H10         -0.1450    -3.3160     0.5410 hn         1 KRD       0.514000
     37 H11         -0.8120     0.2550    -0.3040 ha         1 KRD       0.129500
     38 H12         -3.0650     1.1720    -0.1840 ha         1 KRD       0.115000
     39 H13         -4.5370    -2.5610     1.2880 ha         1 KRD       0.115000
     40 H14         -2.2840    -3.4880     1.1870 ha         1 KRD       0.129500
     41 H15         -5.9090    -0.4640     1.4630 hc         1 KRD       0.061200
     42 H16         -5.3340     1.0300     0.7650 hc         1 KRD       0.061200
     43 H17         -7.2940     1.3210    -0.3550 hn         1 KRD       0.312500
     44 H18         -7.7850     0.3340    -1.6750 hn         1 KRD       0.312500
@<TRIPOS>BOND
     1     1     2 1   
     2     2     3 ar  
     3     2     6 ar  
     4     3     4 ar  
     5     3    27 1   
     6     4     5 ar  
     7     4    28 1   
     8     5     7 ar  
     9     5    29 1   
    10     6     7 ar  
    11     6    30 1   
    12     7     8 1   
    13     8     9 ar  
    14     8    10 ar  
    15     9    13 ar  
    16    10    11 ar  
    17    11    12 ar  
    18    11    16 1   
    19    12    13 ar  
    20    13    14 1   
    21    14    15 1   
    22    14    31 1   
    23    14    32 1   
    24    15    33 1   
    25    15    34 1   
    26    15    35 1   
    27    16    17 1   
    28    16    36 1   
    29    17    18 ar  
    30    17    22 ar  
    31    18    19 ar  
    32    18    37 1   
    33    19    20 ar  
    34    19    38 1   
    35    20    21 ar  
    36    20    23 1   
    37    21    22 ar  
    38    21    39 1   
    39    22    40 1   
    40    23    24 1   
    41    23    41 1   
    42    23    42 1   
    43    24    25 2   
    44    24    26 1   
    45    26    43 1   
    46    26    44 1   
@<TRIPOS>SUBSTRUCTURE
     1 KRD         1 TEMP              0 ****  ****    0 ROOT
