@<TRIPOS>MOLECULE
KRD
   44    46     1     0     0
SMALL
No Charge or Current Charge


@<TRIPOS>ATOM
      1 Cl           0.7890     4.8870     0.2450 cl         1 KRD      -0.203000
      2 C17          2.1070     3.7320     0.0880 ca         1 KRD       0.100000
      3 C16          3.4190     4.1920    -0.0910 ca         1 KRD      -0.081000
      4 C15          4.4690     3.2680    -0.2160 ca         1 KRD      -0.121000
      5 C14          4.2060     1.8880    -0.1610 ca         1 KRD      -0.058000
      6 C18          1.8400     2.3540     0.1440 ca         1 KRD      -0.055000
      7 C13          2.8830     1.3930     0.0200 cp         1 KRD      -0.153500
      8 C3           2.5980    -0.0860     0.0780 cp         1 KRD       0.257500
      9 N            3.6310    -0.9480    -0.0350 nb         1 KRD      -0.258000
     10 N1           1.3190    -0.4860     0.2400 nb         1 KRD      -0.276000
     11 C4           1.1140    -1.8130     0.2710 ca         1 KRD       0.414900
     12 N2           2.0720    -2.7470     0.1800 nb         1 KRD      -0.284000
     13 C2           3.3200    -2.2600     0.0240 ca         1 KRD       0.206300
     14 C1           4.4580    -3.2610    -0.1030 c3         1 KRD      -0.122700
     15 C            4.7480    -3.6440    -1.5690 c3         1 KRD      -0.086100
     16 N3          -0.1710    -2.2960     0.4660 nu         1 KRD      -0.917900
     17 C5          -1.4420    -1.7120     0.5110 ca         1 KRD       0.311000
     18 C10         -1.7490    -0.5190    -0.1710 ca         1 KRD      -0.143000
     19 C9          -3.0420     0.0280    -0.1080 ca         1 KRD      -0.066500
     20 C8          -4.0500    -0.6160     0.6340 ca         1 KRD      -0.092300
     21 C7          -3.7500    -1.8170     1.3020 ca         1 KRD      -0.066500
     22 C6          -2.4550    -2.3610     1.2360 ca         1 KRD      -0.143000
     23 C11         -5.4560    -0.0260     0.7010 c3         1 KRD      -0.110100
     24 C12         -6.3410    -0.5800    -0.4230 c          1 KRD       0.603100
     25 O           -6.8300    -1.6970    -0.4040 o          1 KRD      -0.594100
     26 N4          -6.5600     0.2420    -1.4730 nt         1 KRD      -0.614000
     27 H1           3.6220     5.2590    -0.1340 ha         1 KRD       0.129000
     28 H2           5.4880     3.6210    -0.3550 ha         1 KRD       0.121000
     29 H3           5.0440     1.2000    -0.2620 ha         1 KRD       0.142000
     30 H4           0.8090     2.0380     0.2850 ha         1 KRD       0.148000
     31 H5           5.3720    -2.8510     0.3450 hc         1 KRD       0.067200
     32 H6           4.2260    -4.1720     0.4630 hc         1 KRD       0.067200
     33 H7           3.8640    -4.0970    -2.0330 hc         1 KRD       0.042033
     34 H8           5.0290    -2.7590    -2.1520 hc         1 KRD       0.042033
     35 H9           5.5720    -4.3660    -1.6220 hc         1 KRD       0.042033
     36 H10         -0.1690    -3.2880     0.6990 hn         1 KRD       0.514000
     37 H11         -0.9970    -0.0170    -0.7710 ha         1 KRD       0.129500
     38 H12         -3.2610     0.9500    -0.6430 ha         1 KRD       0.115000
     39 H13         -4.5210    -2.3330     1.8730 ha         1 KRD       0.115000
     40 H14         -2.2400    -3.2880     1.7600 ha         1 KRD       0.129500
     41 H15         -5.9140    -0.2840     1.6630 hc         1 KRD       0.061200
     42 H16         -5.3920     1.0650     0.6170 hc         1 KRD       0.061200
     43 H17         -6.1510     1.1650    -1.4880 hn         1 KRD       0.312500
     44 H18         -7.1330    -0.0790    -2.2390 hn         1 KRD       0.312500
@<TRIPOS>BOND
     1     1     2 1   
     2     2     3 ar  
     3     2     6 ar  
     4     3     4 ar  
     5     3    27 1   
     6     4     5 ar  
     7     4    28 1   
     8     5     7 ar  
     9     5    29 1   
    10     6     7 ar  
    11     6    30 1   
    12     7     8 1   
    13     8     9 ar  
    14     8    10 ar  
    15     9    13 ar  
    16    10    11 ar  
    17    11    12 ar  
    18    11    16 1   
    19    12    13 ar  
    20    13    14 1   
    21    14    15 1   
    22    14    31 1   
    23    14    32 1   
    24    15    33 1   
    25    15    34 1   
    26    15    35 1   
    27    16    17 1   
    28    16    36 1   
    29    17    18 ar  
    30    17    22 ar  
    31    18    19 ar  
    32    18    37 1   
    33    19    20 ar  
    34    19    38 1   
    35    20    21 ar  
    36    20    23 1   
    37    21    22 ar  
    38    21    39 1   
    39    22    40 1   
    40    23    24 1   
    41    23    41 1   
    42    23    42 1   
    43    24    25 2   
    44    24    26 1   
    45    26    43 1   
    46    26    44 1   
@<TRIPOS>SUBSTRUCTURE
     1 KRD         1 TEMP              0 ****  ****    0 ROOT
