@<TRIPOS>MOLECULE
KRE
   59    62     1     0     0
SMALL
No Charge or Current Charge


@<TRIPOS>ATOM
      1 C15          4.5040     2.4320    -3.4240 c3         1 KRE       0.143900
      2 C19         -1.2330    -3.2000     0.2480 ca         1 KRE       0.401900
      3 O11          7.5380     1.0290     0.0620 o          1 KRE      -0.525500
      4 C12          4.5290     0.7130    -1.0710 ca         1 KRE      -0.181000
      5 C13          3.4150     0.7890    -1.9320 ca         1 KRE       0.162100
      6 C16          2.2760     0.0190    -1.6620 ca         1 KRE      -0.135000
      7 C17         -0.2720    -1.0390    -0.2360 ca         1 KRE      -0.014000
      8 C02          1.0260    -3.0490    -0.0440 ca         1 KRE       0.620900
      9 C03          1.0000    -1.6530    -0.2690 cp         1 KRE      -0.174000
     10 C04          2.2240    -0.8450    -0.5470 cp         1 KRE       0.030000
     11 C05          3.3480    -0.8930     0.3090 ca         1 KRE      -0.195000
     12 C06          4.4930    -0.1220     0.0590 ca         1 KRE       0.275000
     13 C10          5.9380     2.3650     1.7110 c3         1 KRE      -0.383100
     14 C20         -1.4290    -1.8100     0.0300 cp         1 KRE      -0.134000
     15 C21         -2.7930    -1.1920     0.0820 cp         1 KRE      -0.055000
     16 C22         -3.9410    -1.9140    -0.3270 ca         1 KRE      -0.075000
     17 C23         -5.2210    -1.3340    -0.2780 ca         1 KRE      -0.158500
     18 C24         -2.9810     0.1340     0.5430 ca         1 KRE      -0.075000
     19 C25         -4.2620     0.7100     0.5930 ca         1 KRE      -0.158500
     20 C26         -5.3960    -0.0150     0.1850 ca         1 KRE       0.295000
     21 C28         -7.7880     0.1360    -0.6610 c6         1 KRE       0.196800
     22 C29         -8.9000     1.2250    -0.8380 c6         1 KRE       0.151300
     23 C31         -8.2950     2.2430     1.3140 c6         1 KRE       0.151300
     24 C32         -7.1730     1.1720     1.5300 c6         1 KRE       0.196800
     25 N07          5.5550    -0.2300     0.9520 nu         1 KRE      -0.873100
     26 N18         -0.0270    -3.8120     0.2100 nb         1 KRE      -0.750000
     27 N27         -6.6770     0.5850     0.2410 nh         1 KRE      -0.788400
     28 N30         -9.4150     1.7520     0.4590 n7         1 KRE      -0.861400
     29 O09          7.4130     0.3180     2.4990 o          1 KRE      -0.525500
     30 O14          3.3920     1.5970    -3.0510 os         1 KRE      -0.337100
     31 S08          6.7710     0.8470     1.2960 s6         1 KRE       1.189100
     32 H153         4.2710     2.9890    -4.3400 h1         1 KRE       0.048033
     33 H151         4.7290     3.1590    -2.6330 h1         1 KRE       0.048033
     34 H152         5.4000     1.8280    -3.6130 h1         1 KRE       0.048033
     35 H191        -2.0800    -3.8480     0.4710 h4         1 KRE       0.020100
     36 H121         5.4170     1.2960    -1.2800 ha         1 KRE       0.150000
     37 H161         1.4240     0.0820    -2.3340 ha         1 KRE       0.140000
     38 H171        -0.3560     0.0290    -0.4190 ha         1 KRE       0.122000
     39 H051         3.3160    -1.5260     1.1920 ha         1 KRE       0.114000
     40 H101         5.2780     2.1580     2.5590 h1         1 KRE       0.104700
     41 H103         6.7070     3.0980     1.9760 h1         1 KRE       0.104700
     42 H102         5.3700     2.6870     0.8330 h1         1 KRE       0.104700
     43 H221        -3.8420    -2.9310    -0.6980 ha         1 KRE       0.110000
     44 H231        -6.0750    -1.9240    -0.5950 ha         1 KRE       0.114500
     45 H241        -2.1300     0.7220     0.8790 ha         1 KRE       0.110000
     46 H251        -4.3710     1.7330     0.9420 ha         1 KRE       0.114500
     47 H282        -8.2510    -0.7750    -0.2540 h1         1 KRE       0.044450
     48 H281        -7.3930    -0.1150    -1.6570 h1         1 KRE       0.044450
     49 H291        -8.4830     2.0600    -1.4220 h1         1 KRE       0.038700
     50 H292        -9.7330     0.8050    -1.4220 h1         1 KRE       0.038700
     51 H311        -8.6890     2.5600     2.2900 h1         1 KRE       0.038700
     52 H312        -7.8470     3.1300     0.8400 h1         1 KRE       0.038700
     53 H322        -6.3510     1.6440     2.0880 h1         1 KRE       0.044450
     54 H321        -7.5720     0.3690     2.1670 h1         1 KRE       0.044450
     55 H011         3.0190    -3.3440    -0.0150 hn         1 KRE       0.480500
     56 H012         2.0370    -4.7290     0.3280 hn         1 KRE       0.480500
     57 H071         5.4060    -0.7570     1.8010 hn         1 KRE       0.485000
     58 H301       -10.0630     2.5280     0.2740 hn         1 KRE       0.414000
     59 N01          2.1240    -3.8100    -0.0870 nv         1 KRE      -1.059900
@<TRIPOS>BOND
     1     1    30 1   
     2     1    32 1   
     3     1    33 1   
     4     1    34 1   
     5     2    14 ar  
     6     2    26 ar  
     7     2    35 1   
     8     3    31 2   
     9     4     5 ar  
    10     4    12 ar  
    11     4    36 1   
    12     5     6 ar  
    13     5    30 1   
    14     6    10 ar  
    15     6    37 1   
    16     7     9 ar  
    17     7    14 ar  
    18     7    38 1   
    19     8     9 ar  
    20     8    26 ar  
    21     8    59 1   
    22     9    10 1   
    23    10    11 ar  
    24    11    12 ar  
    25    11    39 1   
    26    12    25 1   
    27    13    31 1   
    28    13    40 1   
    29    13    41 1   
    30    13    42 1   
    31    14    15 1   
    32    15    16 ar  
    33    15    18 ar  
    34    16    17 ar  
    35    16    43 1   
    36    17    20 ar  
    37    17    44 1   
    38    18    19 ar  
    39    18    45 1   
    40    19    20 ar  
    41    19    46 1   
    42    20    27 1   
    43    21    22 1   
    44    21    27 1   
    45    21    47 1   
    46    21    48 1   
    47    22    28 1   
    48    22    49 1   
    49    22    50 1   
    50    23    24 1   
    51    23    28 1   
    52    23    51 1   
    53    23    52 1   
    54    24    27 1   
    55    24    53 1   
    56    24    54 1   
    57    25    31 1   
    58    25    57 1   
    59    28    58 1   
    60    29    31 2   
    61    55    59 1   
    62    56    59 1   
@<TRIPOS>SUBSTRUCTURE
     1 KRE         1 TEMP              0 ****  ****    0 ROOT
