@<TRIPOS>MOLECULE
KRE
   59    62     1     0     0
SMALL
abcg2


@<TRIPOS>ATOM
      1 C15          4.6640     1.8950    -3.8540 c3         1 KRE       0.143900
      2 C19         -1.1450    -3.0710     0.2100 ca         1 KRE       0.401900
      3 O11          5.9410     2.5040     0.5890 o          1 KRE      -0.525500
      4 C12          4.5900     0.6080    -1.3680 ca         1 KRE      -0.181000
      5 C13          3.5320     0.5400    -2.2680 ca         1 KRE       0.162100
      6 C16          2.3910    -0.2010    -1.9510 ca         1 KRE      -0.135000
      7 C17         -0.1520    -1.0090    -0.3610 ca         1 KRE      -0.014000
      8 C02          1.1190    -3.0230    -0.1520 ca         1 KRE       0.620900
      9 C03          1.0790    -1.6320    -0.4060 cp         1 KRE      -0.174000
     10 C04          2.2990    -0.8640    -0.7380 cp         1 KRE       0.030000
     11 C05          3.3470    -0.7730     0.1810 ca         1 KRE      -0.195000
     12 C06          4.4800    -0.0440    -0.1430 ca         1 KRE       0.275000
     13 C10          4.4780     1.7340     2.6250 c3         1 KRE      -0.383100
     14 C20         -1.3160    -1.7180    -0.0530 cp         1 KRE      -0.134000
     15 C21         -2.6370    -1.0730     0.0130 cp         1 KRE      -0.055000
     16 C22         -3.7870    -1.7210    -0.4290 ca         1 KRE      -0.075000
     17 C23         -5.0380    -1.1240    -0.3530 ca         1 KRE      -0.158500
     18 C24         -2.7920     0.2190     0.5230 ca         1 KRE      -0.075000
     19 C25         -4.0290     0.8280     0.5890 ca         1 KRE      -0.158500
     20 C26         -5.1910     0.1710     0.1560 ca         1 KRE       0.295000
     21 C28         -7.5570     0.1740    -0.4250 c6         1 KRE       0.196800
     22 C29         -8.7040     1.1580    -0.5730 c6         1 KRE       0.151300
     23 C31         -7.9470     2.3890     1.3130 c6         1 KRE       0.151300
     24 C32         -6.7860     1.4290     1.4880 c6         1 KRE       0.196800
     25 N07          5.5640     0.0200     0.7690 nu         1 KRE      -0.873100
     26 N18          0.0190    -3.7040     0.1590 nb         1 KRE      -0.750000
     27 N27         -6.4240     0.8180     0.2130 nh         1 KRE      -0.788400
     28 N30         -9.0700     1.6870     0.7250 n7         1 KRE      -0.861400
     29 O09          7.0430     1.1670     2.4080 o          1 KRE      -0.525500
     30 O14          3.5330     1.1350    -3.4720 os         1 KRE      -0.337100
     31 S08          5.8830     1.4420     1.5790 s6         1 KRE       1.189100
     32 H153         4.4510     2.2880    -4.8450 h1         1 KRE       0.048033
     33 H151         4.8410     2.7320    -3.1730 h1         1 KRE       0.048033
     34 H152         5.5680     1.2830    -3.9040 h1         1 KRE       0.048033
     35 H191        -1.9970    -3.6810     0.4940 h4         1 KRE       0.020100
     36 H121         5.5020     1.1350    -1.6050 ha         1 KRE       0.150000
     37 H161         1.5850    -0.2670    -2.6710 ha         1 KRE       0.140000
     38 H171        -0.2070     0.0520    -0.5730 ha         1 KRE       0.122000
     39 H051         3.2690    -1.2500     1.1510 ha         1 KRE       0.114000
     40 H101         4.3940     0.9260     3.3480 h1         1 KRE       0.104700
     41 H103         4.6350     2.6810     3.1400 h1         1 KRE       0.104700
     42 H102         3.5780     1.7920     2.0160 h1         1 KRE       0.104700
     43 H221        -3.7180    -2.7160    -0.8510 ha         1 KRE       0.110000
     44 H231        -5.8930    -1.6890    -0.6960 ha         1 KRE       0.114500
     45 H241        -1.9280     0.7640     0.8860 ha         1 KRE       0.110000
     46 H251        -4.0890     1.8380     0.9730 ha         1 KRE       0.114500
     47 H282        -7.9000    -0.7050     0.1410 h1         1 KRE       0.044450
     48 H281        -7.2660    -0.1680    -1.4190 h1         1 KRE       0.044450
     49 H291        -8.4030     1.9440    -1.2830 h1         1 KRE       0.038700
     50 H292        -9.5580     0.6360    -1.0080 h1         1 KRE       0.038700
     51 H311        -8.2310     2.7800     2.2910 h1         1 KRE       0.038700
     52 H312        -7.6080     3.2420     0.7040 h1         1 KRE       0.038700
     53 H322        -5.9390     1.9750     1.8980 h1         1 KRE       0.044450
     54 H321        -7.0590     0.6540     2.2200 h1         1 KRE       0.044450
     55 H011         3.1530    -3.2670    -0.2670 hn         1 KRE       0.480500
     56 H012         2.2710    -4.6580     0.1440 hn         1 KRE       0.480500
     57 H071         5.6310    -0.7790     1.3920 hn         1 KRE       0.485000
     58 H301        -9.8570     2.3160     0.6300 hn         1 KRE       0.414000
     59 N01          2.2670    -3.7420    -0.2740 nv         1 KRE      -1.059900
@<TRIPOS>BOND
     1     1    30 1   
     2     1    32 1   
     3     1    33 1   
     4     1    34 1   
     5     2    14 ar  
     6     2    26 ar  
     7     2    35 1   
     8     3    31 2   
     9     4     5 ar  
    10     4    12 ar  
    11     4    36 1   
    12     5     6 ar  
    13     5    30 1   
    14     6    10 ar  
    15     6    37 1   
    16     7     9 ar  
    17     7    14 ar  
    18     7    38 1   
    19     8     9 ar  
    20     8    26 ar  
    21     8    59 1   
    22     9    10 1   
    23    10    11 ar  
    24    11    12 ar  
    25    11    39 1   
    26    12    25 1   
    27    13    31 1   
    28    13    40 1   
    29    13    41 1   
    30    13    42 1   
    31    14    15 1   
    32    15    16 ar  
    33    15    18 ar  
    34    16    17 ar  
    35    16    43 1   
    36    17    20 ar  
    37    17    44 1   
    38    18    19 ar  
    39    18    45 1   
    40    19    20 ar  
    41    19    46 1   
    42    20    27 1   
    43    21    22 1   
    44    21    27 1   
    45    21    47 1   
    46    21    48 1   
    47    22    28 1   
    48    22    49 1   
    49    22    50 1   
    50    23    24 1   
    51    23    28 1   
    52    23    51 1   
    53    23    52 1   
    54    24    27 1   
    55    24    53 1   
    56    24    54 1   
    57    25    31 1   
    58    25    57 1   
    59    28    58 1   
    60    29    31 2   
    61    55    59 1   
    62    56    59 1   
@<TRIPOS>SUBSTRUCTURE
     1 KRE         1 TEMP              0 ****  ****    0 ROOT
