@<TRIPOS>MOLECULE
KRF
   58    61     1     0     0
SMALL
No Charge or Current Charge


@<TRIPOS>ATOM
      1 N1          -6.9070    32.4710     7.8980 n          1 KRF      -0.417800
      2 N3          -2.9850    26.5440     7.9930 ns         1 KRF      -0.491900
      3 C4          -5.3640    30.5580     8.6670 c6         1 KRF       0.153800
      4 C5          -5.6100    30.9370     6.2820 c6         1 KRF       0.153800
      5 C6          -6.3310    32.2900     6.5270 c6         1 KRF       0.097500
      6 C7          -3.7930    29.4060     7.1240 c6         1 KRF       0.194500
      7 C8          -2.7980    29.6210     5.9490 c6         1 KRF      -0.074400
      8 C10         -2.6690    27.1000     5.5830 c6         1 KRF      -0.095400
      9 C13         -2.4590    25.3220     8.3430 c          1 KRF       0.630300
     10 C15         -1.6460    26.3830    10.5480 cc         1 KRF      -0.183200
     11 C17         -0.5310    26.5710    12.8610 ca         1 KRF       0.221000
     12 C20          0.0360    23.8200    12.4450 ca         1 KRF      -0.105300
     13 C21         -0.6620    24.5820    11.4900 ca         1 KRF      -0.015200
     14 C22          0.3360    22.3450    12.2140 c3         1 KRF      -0.042800
     15 C1          -8.3530    33.7430     9.5470 c3         1 KRF      -0.177100
     16 C2          -7.7970    33.5420     8.1350 c          1 KRF       0.609100
     17 O1          -8.1700    34.2670     7.2210 o          1 KRF      -0.606100
     18 C3          -6.0760    31.8960     9.0050 c6         1 KRF       0.097500
     19 N2          -4.6410    30.6160     7.3690 n3         1 KRF      -0.735600
     20 C9          -1.8550    28.4040     5.7860 c6         1 KRF      -0.076400
     21 C11         -3.6800    26.8490     6.7350 c6         1 KRF       0.123700
     22 C12         -4.6010    28.0860     6.9070 c6         1 KRF      -0.126400
     23 O2          -2.5440    24.3390     7.6190 o          1 KRF      -0.621100
     24 C14         -1.7820    25.3010     9.6740 cd         1 KRF      -0.147300
     25 C16         -0.9320    25.9060    11.6950 ca         1 KRF      -0.152800
     26 C18          0.1700    25.8400    13.8390 ca         1 KRF      -0.182000
     27 C19          0.4530    24.4690    13.6320 ca         1 KRF      -0.063000
     28 N4          -1.1630    24.1680    10.2650 na         1 KRF      -0.179700
     29 H1          -2.8690    27.2860     8.6670 hn         1 KRF       0.319500
     30 H2          -6.1260    29.7660     8.6470 h1         1 KRF       0.039450
     31 H3          -4.6700    30.3160     9.4860 h1         1 KRF       0.039450
     32 H4          -6.3760    30.1510     6.2080 h1         1 KRF       0.039450
     33 H5          -5.1120    30.9950     5.3050 h1         1 KRF       0.039450
     34 H6          -5.6130    33.1020     6.3480 h1         1 KRF       0.060200
     35 H7          -7.1280    32.3950     5.7770 h1         1 KRF       0.060200
     36 H8          -3.1720    29.2600     8.0200 h1         1 KRF       0.045700
     37 H9          -2.2040    30.5270     6.1260 hc         1 KRF       0.050200
     38 H10         -3.3370    29.7780     5.0050 hc         1 KRF       0.050200
     39 H11         -3.2140    27.1570     4.6310 hc         1 KRF       0.056200
     40 H12         -1.9850    26.2450     5.4890 hc         1 KRF       0.056200
     41 H13         -2.0080    27.3980    10.3960 ha         1 KRF       0.207000
     42 H14          0.9460    22.2050    11.3130 hc         1 KRF       0.044033
     43 H15          0.8850    21.9050    13.0550 hc         1 KRF       0.044033
     44 H16         -0.5890    21.7710    12.0880 hc         1 KRF       0.044033
     45 H17         -9.1090    34.5340     9.5910 hc         1 KRF       0.059700
     46 H18         -8.7450    32.7900     9.9200 hc         1 KRF       0.059700
     47 H19         -7.5260    33.9510    10.2340 hc         1 KRF       0.059700
     48 H20         -5.3110    32.6360     9.2800 h1         1 KRF       0.060200
     49 H21         -6.6950    31.7250     9.8950 h1         1 KRF       0.060200
     50 H23         -1.1880    28.5630     4.9270 hc         1 KRF       0.044700
     51 H24         -1.2080    28.3120     6.6690 hc         1 KRF       0.044700
     52 H25         -4.3050    25.9810     6.4750 h1         1 KRF       0.076700
     53 H26         -5.2310    28.1760     6.0120 hc         1 KRF       0.054700
     54 H27         -5.2840    27.9050     7.7460 hc         1 KRF       0.054700
     55 H28          0.4920    26.3330    14.7520 ha         1 KRF       0.131000
     56 H29          0.9950    23.9140    14.3950 ha         1 KRF       0.116000
     57 H30         -1.1020    23.2370     9.8640 hn         1 KRF       0.374000
     58 F           -0.8080    27.8810    13.0450 f          1 KRF      -0.176000
@<TRIPOS>BOND
     1     1     5 1   
     2     1    16 1   
     3     1    18 1   
     4     2     9 1   
     5     2    21 1   
     6     2    29 1   
     7     3    18 1   
     8     3    19 1   
     9     3    30 1   
    10     3    31 1   
    11     4     5 1   
    12     4    19 1   
    13     4    32 1   
    14     4    33 1   
    15     5    34 1   
    16     5    35 1   
    17     6     7 1   
    18     6    19 1   
    19     6    22 1   
    20     6    36 1   
    21     7    20 1   
    22     7    37 1   
    23     7    38 1   
    24     8    20 1   
    25     8    21 1   
    26     8    39 1   
    27     8    40 1   
    28     9    23 2   
    29     9    24 1   
    30    10    24 2   
    31    10    25 1   
    32    10    41 1   
    33    11    25 ar  
    34    11    26 ar  
    35    11    58 1   
    36    12    13 ar  
    37    12    14 1   
    38    12    27 ar  
    39    13    25 ar  
    40    13    28 1   
    41    14    42 1   
    42    14    43 1   
    43    14    44 1   
    44    15    16 1   
    45    15    45 1   
    46    15    46 1   
    47    15    47 1   
    48    16    17 2   
    49    18    48 1   
    50    18    49 1   
    51    20    50 1   
    52    20    51 1   
    53    21    22 1   
    54    21    52 1   
    55    22    53 1   
    56    22    54 1   
    57    24    28 1   
    58    26    27 ar  
    59    26    55 1   
    60    27    56 1   
    61    28    57 1   
@<TRIPOS>SUBSTRUCTURE
     1 KRF         1 TEMP              0 ****  ****    0 ROOT
