@<TRIPOS>MOLECULE
KRF
   58    61     1     0     0
SMALL
bcc


@<TRIPOS>ATOM
      1 N1          -6.7540    32.6070     7.7180 n          1 KRF      -0.484800
      2 N3          -3.0110    26.8220     8.2510 ns         1 KRF      -0.558900
      3 C4          -5.2470    30.9110     8.6130 c6         1 KRF       0.153800
      4 C5          -5.5830    31.0420     6.2600 c6         1 KRF       0.153800
      5 C6          -6.1600    32.4410     6.4050 c6         1 KRF       0.097500
      6 C7          -3.8040    29.5920     7.1680 c6         1 KRF       0.194500
      7 C8          -2.8450    29.6890     5.9830 c6         1 KRF      -0.074400
      8 C10         -2.7310    27.1820     5.8250 c6         1 KRF      -0.095400
      9 C13         -2.5430    25.6230     8.6220 c          1 KRF       0.697300
     10 C15         -1.2920    26.5700    10.7040 cc         1 KRF      -0.133200
     11 C17          0.1150    26.3370    12.8780 ca         1 KRF       0.185900
     12 C20         -0.1150    23.5590    12.3640 ca         1 KRF      -0.105300
     13 C21         -0.6890    24.5250    11.5210 ca         1 KRF      -0.015200
     14 C22         -0.2490    22.0960    12.0750 c3         1 KRF      -0.042800
     15 C1          -8.5800    33.0900     9.2750 c3         1 KRF      -0.177100
     16 C2          -8.0470    32.9740     7.8650 c          1 KRF       0.676100
     17 O1          -8.7670    33.2110     6.9030 o          1 KRF      -0.606100
     18 C3          -5.8330    32.3030     8.7950 c6         1 KRF       0.097500
     19 N2          -4.6170    30.7940     7.3130 n3         1 KRF      -0.735600
     20 C9          -1.9260    28.4720     5.9210 c6         1 KRF      -0.076400
     21 C11         -3.7100    27.0430     6.9930 c6         1 KRF       0.123700
     22 C12         -4.6010    28.2800     7.0940 c6         1 KRF      -0.126400
     23 O2          -2.7220    24.5920     7.9830 o          1 KRF      -0.621100
     24 C14         -1.7740    25.5820     9.8840 cd         1 KRF      -0.147300
     25 C16         -0.5950    25.9130    11.7540 ca         1 KRF      -0.152800
     26 C18          0.6920    25.4310    13.7240 ca         1 KRF      -0.200000
     27 C19          0.5690    24.0520    13.4560 ca         1 KRF      -0.081000
     28 N4          -1.4070    24.3620    10.3800 na         1 KRF      -0.129400
     29 H1          -2.8350    27.6140     8.8470 hn         1 KRF       0.319500
     30 H2          -6.0480    30.1710     8.7680 h1         1 KRF       0.039450
     31 H3          -4.4980    30.7450     9.3900 h1         1 KRF       0.039450
     32 H4          -6.4170    30.3210     6.2660 h1         1 KRF       0.039450
     33 H5          -5.1020    30.9710     5.2840 h1         1 KRF       0.039450
     34 H6          -5.3630    33.1810     6.2750 h1         1 KRF       0.060200
     35 H7          -6.9110    32.6190     5.6410 h1         1 KRF       0.060200
     36 H8          -3.1820    29.5750     8.0720 h1         1 KRF       0.045700
     37 H9          -2.2610    30.6080     6.0640 hc         1 KRF       0.050200
     38 H10         -3.4070    29.7470     5.0450 hc         1 KRF       0.050200
     39 H11         -3.3090    27.1800     4.8960 hc         1 KRF       0.056200
     40 H12         -2.0740    26.3110     5.7850 hc         1 KRF       0.056200
     41 H13         -1.4040    27.6350    10.5750 ha         1 KRF       0.157000
     42 H14          0.1710    21.8400    11.1000 hc         1 KRF       0.044033
     43 H15          0.2680    21.5010    12.8250 hc         1 KRF       0.044033
     44 H16         -1.2950    21.7830    12.0650 hc         1 KRF       0.044033
     45 H17         -9.6190    33.4040     9.2320 hc         1 KRF       0.059700
     46 H18         -8.5320    32.1400     9.8090 hc         1 KRF       0.059700
     47 H19         -8.0250    33.8220     9.8620 hc         1 KRF       0.059700
     48 H20         -5.0220    33.0390     8.7920 h1         1 KRF       0.060200
     49 H21         -6.3270    32.3640     9.7600 h1         1 KRF       0.060200
     50 H23         -1.2550    28.5560     5.0640 hc         1 KRF       0.044700
     51 H24         -1.2880    28.4450     6.8100 hc         1 KRF       0.044700
     52 H25         -4.3490    26.1750     6.8210 h1         1 KRF       0.076700
     53 H26         -5.2320    28.2920     6.2010 hc         1 KRF       0.054700
     54 H27         -5.2710    28.1770     7.9520 hc         1 KRF       0.054700
     55 H28          1.2420    25.7670    14.5930 ha         1 KRF       0.149000
     56 H29          1.0360    23.3540    14.1400 ha         1 KRF       0.134000
     57 H30         -1.6400    23.4850     9.9410 hn         1 KRF       0.323700
     58 F            0.2220    27.6550    13.1100 f          1 KRF      -0.140900
@<TRIPOS>BOND
     1     1     5 1   
     2     1    16 1   
     3     1    18 1   
     4     2     9 1   
     5     2    21 1   
     6     2    29 1   
     7     3    18 1   
     8     3    19 1   
     9     3    30 1   
    10     3    31 1   
    11     4     5 1   
    12     4    19 1   
    13     4    32 1   
    14     4    33 1   
    15     5    34 1   
    16     5    35 1   
    17     6     7 1   
    18     6    19 1   
    19     6    22 1   
    20     6    36 1   
    21     7    20 1   
    22     7    37 1   
    23     7    38 1   
    24     8    20 1   
    25     8    21 1   
    26     8    39 1   
    27     8    40 1   
    28     9    23 2   
    29     9    24 1   
    30    10    24 2   
    31    10    25 1   
    32    10    41 1   
    33    11    25 ar  
    34    11    26 ar  
    35    11    58 1   
    36    12    13 ar  
    37    12    14 1   
    38    12    27 ar  
    39    13    25 ar  
    40    13    28 1   
    41    14    42 1   
    42    14    43 1   
    43    14    44 1   
    44    15    16 1   
    45    15    45 1   
    46    15    46 1   
    47    15    47 1   
    48    16    17 2   
    49    18    48 1   
    50    18    49 1   
    51    20    50 1   
    52    20    51 1   
    53    21    22 1   
    54    21    52 1   
    55    22    53 1   
    56    22    54 1   
    57    24    28 1   
    58    26    27 ar  
    59    26    55 1   
    60    27    56 1   
    61    28    57 1   
@<TRIPOS>SUBSTRUCTURE
     1 KRF         1 TEMP              0 ****  ****    0 ROOT
