@<TRIPOS>MOLECULE
KRG
   33    34     1     0     0
SMALL
No Charge or Current Charge


@<TRIPOS>ATOM
      1 CAA        -14.9900    13.6460   -11.7760 c3         1 KRG      -0.091100
      2 CAB        -13.8780    14.1650   -12.7020 c3         1 KRG       0.164600
      3 OAC        -12.6180    13.9040   -12.0580 os         1 KRG      -0.379100
      4 CAD        -11.4100    14.2510   -12.6300 ca         1 KRG       0.098100
      5 CAE        -11.3180    14.8810   -13.8880 ca         1 KRG      -0.155000
      6 CAF        -10.0570    15.2120   -14.4340 ca         1 KRG      -0.102600
      7 CAG         -8.8950    14.8920   -13.6920 ca         1 KRG      -0.106000
      8 CAH         -8.9690    14.2550   -12.4330 ca         1 KRG      -0.022000
      9 CAI        -10.2430    13.9480   -11.9160 ca         1 KRG      -0.155000
     10 CAJ         -7.7470    13.9350   -11.6700 cc         1 KRG      -0.141000
     11 CAK         -7.5120    13.7720   -10.2800 cc         1 KRG       0.297300
     12 CAL         -8.4940    14.1320    -9.1990 c3         1 KRG      -0.131400
     13 NAM         -6.3020    13.3200    -9.9940 nd         1 KRG      -0.396300
     14 OAN         -5.6950    13.1260   -11.2790 os         1 KRG      -0.115700
     15 CAO         -6.5970    13.4730   -12.2510 cd         1 KRG       0.194300
     16 CAP         -6.2200    13.1860   -13.6810 c3         1 KRG      -0.135400
     17 CAQ         -9.9480    15.9060   -15.7880 c          1 KRG       0.705600
     18 OAR        -10.9760    16.1880   -16.3870 o          1 KRG      -0.719500
     19 OAS         -8.8360    16.1570   -16.2310 o          1 KRG      -0.719500
     20 HAA        -15.9730    13.8250   -12.2280 hc         1 KRG       0.036367
     21 HAAA       -14.8800    12.5690   -11.6050 hc         1 KRG       0.036367
     22 HAAB       -14.9580    14.1610   -10.8080 hc         1 KRG       0.036367
     23 HAB        -13.9370    13.6460   -13.6680 h1         1 KRG       0.038700
     24 HABA       -14.0150    15.2410   -12.8700 h1         1 KRG       0.038700
     25 HAE        -12.2160    15.1210   -14.4500 ha         1 KRG       0.137000
     26 HAG         -7.9260    15.1800   -14.0880 ha         1 KRG       0.132000
     27 HAI        -10.3430    13.4350   -10.9660 ha         1 KRG       0.102000
     28 HAL         -7.9740    14.4240    -8.2790 hc         1 KRG       0.053700
     29 HALA        -9.1240    14.9770    -9.5010 hc         1 KRG       0.053700
     30 HALB        -9.1410    13.2810    -8.9610 hc         1 KRG       0.053700
     31 HAP         -5.4340    12.4240   -13.7330 hc         1 KRG       0.063700
     32 HAPA        -7.0770    12.8090   -14.2520 hc         1 KRG       0.063700
     33 HAPB        -5.8410    14.0860   -14.1770 hc         1 KRG       0.063700
@<TRIPOS>BOND
     1     1     2 1   
     2     1    20 1   
     3     1    21 1   
     4     1    22 1   
     5     2     3 1   
     6     2    23 1   
     7     2    24 1   
     8     3     4 1   
     9     4     5 ar  
    10     4     9 ar  
    11     5     6 ar  
    12     5    25 1   
    13     6     7 ar  
    14     6    17 1   
    15     7     8 ar  
    16     7    26 1   
    17     8     9 ar  
    18     8    10 1   
    19     9    27 1   
    20    10    11 1   
    21    10    15 2   
    22    11    12 1   
    23    11    13 2   
    24    12    28 1   
    25    12    29 1   
    26    12    30 1   
    27    13    14 1   
    28    14    15 1   
    29    15    16 1   
    30    16    31 1   
    31    16    32 1   
    32    16    33 1   
    33    17    18 1   
    34    17    19 1   
@<TRIPOS>SUBSTRUCTURE
     1 KRG         1 TEMP              0 ****  ****    0 ROOT
