@<TRIPOS>MOLECULE
KRG
   33    34     1     0     0
SMALL
abcg2


@<TRIPOS>ATOM
      1 CAA        -14.9640    13.5620   -11.8680 c3         1 KRG      -0.091100
      2 CAB        -13.8370    14.1230   -12.7040 c3         1 KRG       0.164600
      3 OAC        -12.6030    13.7870   -12.0560 os         1 KRG      -0.379100
      4 CAD        -11.4350    14.1900   -12.6320 ca         1 KRG       0.098100
      5 CAE        -11.3570    14.9130   -13.8190 ca         1 KRG      -0.155000
      6 CAF        -10.1100    15.2730   -14.3340 ca         1 KRG      -0.102600
      7 CAG         -8.9520    14.9150   -13.6530 ca         1 KRG      -0.106000
      8 CAH         -9.0200    14.1870   -12.4590 ca         1 KRG      -0.022000
      9 CAI        -10.2690    13.8260   -11.9560 ca         1 KRG      -0.155000
     10 CAJ         -7.7920    13.8080   -11.7460 cc         1 KRG      -0.141000
     11 CAK         -7.5270    13.8840   -10.3390 cc         1 KRG       0.297300
     12 CAL         -8.4290    14.3630    -9.2520 c3         1 KRG      -0.131400
     13 NAM         -6.3130    13.4860   -10.0580 nd         1 KRG      -0.396300
     14 OAN         -5.7350    13.1200   -11.2860 os         1 KRG      -0.115700
     15 CAO         -6.6300    13.3240   -12.2740 cd         1 KRG       0.194300
     16 CAP         -6.1950    12.9830   -13.6490 c3         1 KRG      -0.135400
     17 CAQ        -10.0290    16.0640   -15.6420 c          1 KRG       0.705600
     18 OAR        -11.1180    16.4070   -16.1680 o          1 KRG      -0.719500
     19 OAS         -8.8800    16.3060   -16.0920 o          1 KRG      -0.719500
     20 HAA        -15.9210    13.8030   -12.3350 hc         1 KRG       0.036367
     21 HAAA       -14.8850    12.4770   -11.7870 hc         1 KRG       0.036367
     22 HAAB       -14.9530    13.9910   -10.8650 hc         1 KRG       0.036367
     23 HAB        -13.8450    13.6980   -13.7120 h1         1 KRG       0.038700
     24 HABA       -13.9160    15.2110   -12.7920 h1         1 KRG       0.038700
     25 HAE        -12.2390    15.2100   -14.3630 ha         1 KRG       0.137000
     26 HAG         -7.9980    15.2230   -14.0520 ha         1 KRG       0.132000
     27 HAI        -10.3570    13.2470   -11.0470 ha         1 KRG       0.102000
     28 HAL         -7.8600    14.5380    -8.3400 hc         1 KRG       0.053700
     29 HALA        -8.9260    15.2870    -9.5500 hc         1 KRG       0.053700
     30 HALB        -9.2050    13.6260    -9.0400 hc         1 KRG       0.053700
     31 HAP         -5.6170    12.0580   -13.6460 hc         1 KRG       0.063700
     32 HAPA        -7.0620    12.8630   -14.2950 hc         1 KRG       0.063700
     33 HAPB        -5.5660    13.7740   -14.0650 hc         1 KRG       0.063700
@<TRIPOS>BOND
     1     1     2 1   
     2     1    20 1   
     3     1    21 1   
     4     1    22 1   
     5     2     3 1   
     6     2    23 1   
     7     2    24 1   
     8     3     4 1   
     9     4     5 ar  
    10     4     9 ar  
    11     5     6 ar  
    12     5    25 1   
    13     6     7 ar  
    14     6    17 1   
    15     7     8 ar  
    16     7    26 1   
    17     8     9 ar  
    18     8    10 1   
    19     9    27 1   
    20    10    11 1   
    21    10    15 2   
    22    11    12 1   
    23    11    13 2   
    24    12    28 1   
    25    12    29 1   
    26    12    30 1   
    27    13    14 1   
    28    14    15 1   
    29    15    16 1   
    30    16    31 1   
    31    16    32 1   
    32    16    33 1   
    33    17    18 1   
    34    17    19 1   
@<TRIPOS>SUBSTRUCTURE
     1 KRG         1 TEMP              0 ****  ****    0 ROOT
