@<TRIPOS>MOLECULE
KRH
   59    63     1     0     0
SMALL
No Charge or Current Charge


@<TRIPOS>ATOM
      1 N1           3.2740    -0.3700     1.4520 n          1 KRH      -0.381400
      2 C2           3.5710     0.9200     0.9910 c          1 KRH       0.628000
      3 N3           2.7080     1.5100     0.0500 n          1 KRH      -0.370300
      4 C4           1.5520     0.8730    -0.3600 cc         1 KRH       0.418900
      5 C5           1.2450    -0.3700     0.1730 cc         1 KRH      -0.319600
      6 C6           2.1660    -1.1130     1.0360 c          1 KRH       0.635600
      7 C7           3.0460     2.8560    -0.4930 c3         1 KRH       0.117000
      8 C8           3.6880     2.8280    -1.9060 c3         1 KRH      -0.080700
      9 C9           3.8780     4.2590    -2.4550 c3         1 KRH      -0.087100
     10 C10          5.0170     2.0370    -1.9420 c3         1 KRH      -0.087100
     11 O11          4.5700     1.5060     1.3850 o          1 KRH      -0.553000
     12 C12          4.2290    -1.0100     2.4010 c3         1 KRH       0.084300
     13 O13          2.0260    -2.2870     1.3420 o          1 KRH      -0.526000
     14 C14          0.0570    -0.7300    -0.4130 cd         1 KRH       0.048000
     15 N15         -0.2530     0.3230    -1.3010 na         1 KRH       0.155800
     16 N16          0.6970     1.3370    -1.2420 nd         1 KRH      -0.565800
     17 C17         -0.7280    -1.9250    -0.1840 cd         1 KRH      -0.178000
     18 N20         -2.0990    -3.6560    -0.6220 nc         1 KRH      -0.676000
     19 C21         -1.7520    -3.7020     0.6610 cd         1 KRH       0.406400
     20 C23         -1.5110     0.5650    -2.0490 c3         1 KRH       0.132900
     21 C24         -2.8270     0.2590    -1.3080 ca         1 KRH      -0.117300
     22 C25         -3.7710    -0.5520    -1.9760 ca         1 KRH      -0.074000
     23 C26         -4.9610    -0.9450    -1.3480 ca         1 KRH      -0.115000
     24 C27         -5.2330    -0.5280    -0.0390 ca         1 KRH      -0.086000
     25 C28         -4.3290     0.3110     0.6350 ca         1 KRH      -0.048000
     26 C29         -3.1300     0.7320     0.0030 ca         1 KRH      -0.019000
     27 N29         -0.9320    -2.6300     0.9940 na         1 KRH      -0.125500
     28 C30         -2.2830     1.6230     0.7050 ca         1 KRH      -0.107000
     29 C31         -2.5960     2.0420     2.0090 ca         1 KRH      -0.100000
     30 C32         -3.7670     1.5900     2.6320 ca         1 KRH      -0.105000
     31 C33         -4.6360     0.7330     1.9430 ca         1 KRH      -0.100000
     32 C34         -1.4920    -2.5440    -1.1360 cc         1 KRH       0.267900
     33 C35         -0.6990    -2.1640     2.3730 c3         1 KRH       0.049900
     34 H7           2.1220     3.4490    -0.5390 h1         1 KRH       0.066700
     35 H7A          3.7110     3.3940     0.1940 h1         1 KRH       0.066700
     36 H8           2.9880     2.3170    -2.5790 hc         1 KRH       0.061700
     37 H9           4.5750     4.8290    -1.8290 hc         1 KRH       0.036533
     38 H9A          4.2770     4.2340    -3.4770 hc         1 KRH       0.036533
     39 H9B          2.9210     4.7950    -2.4810 hc         1 KRH       0.036533
     40 H10          5.7520     2.4760    -1.2560 hc         1 KRH       0.036533
     41 H10A         4.8600     0.9900    -1.6560 hc         1 KRH       0.036533
     42 H10B         5.4440     2.0440    -2.9520 hc         1 KRH       0.036533
     43 H12          3.7330    -1.7790     3.0060 h1         1 KRH       0.056033
     44 H12A         5.0500    -1.4720     1.8390 h1         1 KRH       0.056033
     45 H12B         4.6440    -0.2670     3.0950 h1         1 KRH       0.056033
     46 H21         -2.0930    -4.4170     1.4000 h5         1 KRH       0.057100
     47 H23         -1.5300     1.6180    -2.3540 h1         1 KRH       0.080700
     48 H23A        -1.4580    -0.0260    -2.9720 h1         1 KRH       0.080700
     49 H25         -3.5730    -0.9040    -2.9860 ha         1 KRH       0.125000
     50 H26         -5.6670    -1.5840    -1.8730 ha         1 KRH       0.123000
     51 H27         -6.1530    -0.8470     0.4440 ha         1 KRH       0.117000
     52 H30         -1.3840     2.0260     0.2530 ha         1 KRH       0.131000
     53 H31         -1.9300     2.7230     2.5340 ha         1 KRH       0.117000
     54 H32         -4.0080     1.9160     3.6420 ha         1 KRH       0.117000
     55 H33         -5.5520     0.4000     2.4260 ha         1 KRH       0.115000
     56 H34         -1.6080    -2.2940    -2.1820 h4         1 KRH       0.041100
     57 H35         -0.3110    -1.1390     2.3690 h1         1 KRH       0.062367
     58 H35A        -1.6460    -2.1760     2.9260 h1         1 KRH       0.062367
     59 H35B         0.0140    -2.8290     2.8760 h1         1 KRH       0.062367
@<TRIPOS>BOND
     1     1     2 1   
     2     1     6 1   
     3     1    12 1   
     4     2     3 1   
     5     2    11 2   
     6     3     4 1   
     7     3     7 1   
     8     4     5 1   
     9     4    16 2   
    10     5     6 1   
    11     5    14 2   
    12     6    13 2   
    13     7     8 1   
    14     7    34 1   
    15     7    35 1   
    16     8     9 1   
    17     8    10 1   
    18     8    36 1   
    19     9    37 1   
    20     9    38 1   
    21     9    39 1   
    22    10    40 1   
    23    10    41 1   
    24    10    42 1   
    25    12    43 1   
    26    12    44 1   
    27    12    45 1   
    28    14    15 1   
    29    14    17 1   
    30    15    16 1   
    31    15    20 1   
    32    17    27 1   
    33    17    32 2   
    34    18    19 2   
    35    18    32 1   
    36    19    27 1   
    37    19    46 1   
    38    20    21 1   
    39    20    47 1   
    40    20    48 1   
    41    21    22 ar  
    42    21    26 ar  
    43    22    23 ar  
    44    22    49 1   
    45    23    24 ar  
    46    23    50 1   
    47    24    25 ar  
    48    24    51 1   
    49    25    26 ar  
    50    25    31 ar  
    51    26    28 ar  
    52    27    33 1   
    53    28    29 ar  
    54    28    52 1   
    55    29    30 ar  
    56    29    53 1   
    57    30    31 ar  
    58    30    54 1   
    59    31    55 1   
    60    32    56 1   
    61    33    57 1   
    62    33    58 1   
    63    33    59 1   
@<TRIPOS>SUBSTRUCTURE
     1 KRH         1 TEMP              0 ****  ****    0 ROOT
