@<TRIPOS>MOLECULE
KRH
   59    63     1     0     0
SMALL
abcg2


@<TRIPOS>ATOM
      1 N1           3.4400    -0.6710     1.2920 n          1 KRH      -0.381400
      2 C2           3.6800     0.6610     0.9410 c          1 KRH       0.628000
      3 N3           2.7470     1.3030     0.1650 n          1 KRH      -0.370300
      4 C4           1.6360     0.6200    -0.2460 cc         1 KRH       0.418900
      5 C5           1.4010    -0.7040     0.1210 cc         1 KRH      -0.319600
      6 C6           2.3240    -1.4300     0.9440 c          1 KRH       0.635600
      7 C7           2.9090     2.7060    -0.2020 c3         1 KRH       0.117000
      8 C8           3.3380     2.9250    -1.6520 c3         1 KRH      -0.080700
      9 C9           3.3970     4.4260    -1.9170 c3         1 KRH      -0.087100
     10 C10          4.6710     2.2600    -1.9700 c3         1 KRH      -0.087100
     11 O11          4.6880     1.2170     1.3250 o          1 KRH      -0.553000
     12 C12          4.4760    -1.2890     2.1110 c3         1 KRH       0.084300
     13 O13          2.1730    -2.5780     1.3150 o          1 KRH      -0.526000
     14 C14          0.1950    -1.0260    -0.4840 cd         1 KRH       0.048000
     15 N15         -0.1900     0.0850    -1.1280 na         1 KRH       0.155800
     16 N16          0.6790     1.1020    -1.0050 nd         1 KRH      -0.565800
     17 C17         -0.5610    -2.2650    -0.5210 cd         1 KRH      -0.178000
     18 N20         -1.5820    -4.1630    -1.1180 nc         1 KRH      -0.676000
     19 C21         -1.8990    -3.8580     0.1170 cd         1 KRH       0.406400
     20 C23         -1.4330     0.2860    -1.8650 c3         1 KRH       0.132900
     21 C24         -2.6520     0.0840    -1.0050 ca         1 KRH      -0.117300
     22 C25         -3.4740    -0.9830    -1.2560 ca         1 KRH      -0.074000
     23 C26         -4.6080    -1.2420    -0.4620 ca         1 KRH      -0.115000
     24 C27         -4.9090    -0.4200     0.5860 ca         1 KRH      -0.086000
     25 C28         -4.1010     0.7050     0.8710 ca         1 KRH      -0.048000
     26 C29         -2.9600     0.9730     0.0660 ca         1 KRH      -0.019000
     27 N29         -1.3040    -2.7260     0.5310 na         1 KRH      -0.125500
     28 C30         -2.1830     2.1190     0.3680 ca         1 KRH      -0.107000
     29 C31         -2.5170     2.9410     1.4110 ca         1 KRH      -0.100000
     30 C32         -3.6410     2.6650     2.2130 ca         1 KRH      -0.105000
     31 C33         -4.4160     1.5700     1.9440 ca         1 KRH      -0.100000
     32 C34         -0.7460    -3.1740    -1.5290 cc         1 KRH       0.267900
     33 C35         -1.4640    -2.0840     1.8150 c3         1 KRH       0.049900
     34 H7           1.9530     3.2000    -0.0180 h1         1 KRH       0.066700
     35 H7A          3.6370     3.1460     0.4760 h1         1 KRH       0.066700
     36 H8           2.5710     2.4950    -2.3040 hc         1 KRH       0.061700
     37 H9           4.1500     4.9040    -1.2870 hc         1 KRH       0.036533
     38 H9A          3.6600     4.6250    -2.9560 hc         1 KRH       0.036533
     39 H9B          2.4390     4.9080    -1.7170 hc         1 KRH       0.036533
     40 H10          5.4730     2.6700    -1.3530 hc         1 KRH       0.036533
     41 H10A         4.6430     1.1810    -1.8130 hc         1 KRH       0.036533
     42 H10B         4.9390     2.4260    -3.0150 hc         1 KRH       0.036533
     43 H12          4.1750    -2.3020     2.3460 h1         1 KRH       0.056033
     44 H12A         5.4220    -1.3210     1.5750 h1         1 KRH       0.056033
     45 H12B         4.6140    -0.7410     3.0400 h1         1 KRH       0.056033
     46 H21         -2.5560    -4.4240     0.7610 h5         1 KRH       0.057100
     47 H23         -1.3780     1.2950    -2.2730 h1         1 KRH       0.080700
     48 H23A        -1.4560    -0.4010    -2.7100 h1         1 KRH       0.080700
     49 H25         -3.2450    -1.6560    -2.0730 ha         1 KRH       0.125000
     50 H26         -5.2300    -2.0980    -0.6860 ha         1 KRH       0.123000
     51 H27         -5.7730    -0.6160     1.2090 ha         1 KRH       0.117000
     52 H30         -1.3120     2.3620    -0.2260 ha         1 KRH       0.131000
     53 H31         -1.9110     3.8130     1.6210 ha         1 KRH       0.117000
     54 H32         -3.8920     3.3230     3.0350 ha         1 KRH       0.117000
     55 H33         -5.2870     1.3530     2.5500 ha         1 KRH       0.115000
     56 H34         -0.3140    -3.1510    -2.5180 h4         1 KRH       0.041100
     57 H35         -1.8530    -1.0750     1.6890 h1         1 KRH       0.062367
     58 H35A        -2.1700    -2.6560     2.4100 h1         1 KRH       0.062367
     59 H35B        -0.5140    -2.0400     2.3430 h1         1 KRH       0.062367
@<TRIPOS>BOND
     1     1     2 1   
     2     1     6 1   
     3     1    12 1   
     4     2     3 1   
     5     2    11 2   
     6     3     4 1   
     7     3     7 1   
     8     4     5 1   
     9     4    16 2   
    10     5     6 1   
    11     5    14 2   
    12     6    13 2   
    13     7     8 1   
    14     7    34 1   
    15     7    35 1   
    16     8     9 1   
    17     8    10 1   
    18     8    36 1   
    19     9    37 1   
    20     9    38 1   
    21     9    39 1   
    22    10    40 1   
    23    10    41 1   
    24    10    42 1   
    25    12    43 1   
    26    12    44 1   
    27    12    45 1   
    28    14    15 1   
    29    14    17 1   
    30    15    16 1   
    31    15    20 1   
    32    17    27 1   
    33    17    32 2   
    34    18    19 2   
    35    18    32 1   
    36    19    27 1   
    37    19    46 1   
    38    20    21 1   
    39    20    47 1   
    40    20    48 1   
    41    21    22 ar  
    42    21    26 ar  
    43    22    23 ar  
    44    22    49 1   
    45    23    24 ar  
    46    23    50 1   
    47    24    25 ar  
    48    24    51 1   
    49    25    26 ar  
    50    25    31 ar  
    51    26    28 ar  
    52    27    33 1   
    53    28    29 ar  
    54    28    52 1   
    55    29    30 ar  
    56    29    53 1   
    57    30    31 ar  
    58    30    54 1   
    59    31    55 1   
    60    32    56 1   
    61    33    57 1   
    62    33    58 1   
    63    33    59 1   
@<TRIPOS>SUBSTRUCTURE
     1 KRH         1 TEMP              0 ****  ****    0 ROOT
