@<TRIPOS>MOLECULE
KRJ
   53    56     1     0     0
SMALL
abcg2


@<TRIPOS>ATOM
      1 N01         -6.8540     1.5700    -0.3500 n1         1 KRJ      -0.444000
      2 C02         -6.1300     0.6770    -0.2740 cg         1 KRJ       0.254000
      3 C03         -5.2420    -0.4230    -0.1860 cc         1 KRJ       0.311000
      4 C04         -5.5730    -1.7580    -0.1230 cd         1 KRJ      -0.157000
      5 N05         -4.3940    -2.4010    -0.0510 na         1 KRJ      -0.245500
      6 C06         -3.4100    -1.4730    -0.0710 cd         1 KRJ       0.333000
      7 N07         -3.8920    -0.2630    -0.1520 nc         1 KRJ      -0.629000
      8 C08         -1.9750    -1.8390    -0.0090 c          1 KRJ       0.547600
      9 O09         -1.6360    -3.0070     0.0740 o          1 KRJ      -0.596100
     10 N10         -1.1820    -0.7550    -0.0580 ns         1 KRJ      -0.119000
     11 C11          0.2120    -0.6520    -0.0230 ca         1 KRJ      -0.018000
     12 C12          1.0650    -1.7530     0.0600 ca         1 KRJ      -0.135000
     13 C13          2.4370    -1.5660     0.1040 ca         1 KRJ      -0.082000
     14 C14          3.0050    -0.2950     0.0760 ca         1 KRJ      -0.095300
     15 C15          2.1390     0.7890     0.0010 ca         1 KRJ      -0.072000
     16 C16          0.7580     0.6410    -0.0630 ca         1 KRJ      -0.091800
     17 C17         -0.1140     1.8410    -0.1380 ce         1 KRJ      -0.086400
     18 C18         -0.8120     2.1200    -1.2420 c2         1 KRJ      -0.200200
     19 C19         -1.7790     3.2580    -1.3550 c6         1 KRJ      -0.043200
     20 C20         -2.1540     3.8170     0.0120 c6         1 KRJ      -0.076400
     21 C21         -0.9050     4.0200     0.8590 c6         1 KRJ      -0.073400
     22 C22         -0.1880     2.6970     1.1000 c6         1 KRJ      -0.033200
     23 C23          4.4970    -0.0950     0.1070 c6         1 KRJ      -0.010400
     24 C24          5.1800    -0.6690    -1.1390 c6         1 KRJ      -0.108400
     25 C25          6.6910    -0.4630    -1.0710 c6         1 KRJ       0.147800
     26 N26          7.3050    -0.9850     0.1400 n7         1 KRJ      -0.844400
     27 C27          6.6600    -0.4680     1.3360 c6         1 KRJ       0.147800
     28 C28          5.1470    -0.6770     1.3660 c6         1 KRJ      -0.108400
     29 HN05        -4.2680    -3.4020     0.0030 hn         1 KRJ       0.383000
     30 H04         -6.5240    -2.2630    -0.1250 h4         1 KRJ       0.177000
     31 HN10        -1.6710     0.1290    -0.1460 hn         1 KRJ       0.193000
     32 H12          0.6690    -2.7560     0.0920 ha         1 KRJ       0.144000
     33 H13          3.0710    -2.4420     0.1610 ha         1 KRJ       0.114000
     34 H15          2.5480     1.7940    -0.0210 ha         1 KRJ       0.116000
     35 H18         -0.6940     1.4830    -2.1150 ha         1 KRJ       0.176000
     36 H19         -1.3450     4.0460    -1.9810 hc         1 KRJ       0.051700
     37 H19A        -2.6710     2.9170    -1.8870 hc         1 KRJ       0.051700
     38 H20         -2.7000     4.7560    -0.1030 hc         1 KRJ       0.046200
     39 H20A        -2.8290     3.1180     0.5150 hc         1 KRJ       0.046200
     40 H21         -0.2310     4.7120     0.3440 hc         1 KRJ       0.041200
     41 H21A        -1.1550     4.4830     1.8160 hc         1 KRJ       0.041200
     42 H22         -0.6890     2.1280     1.8930 hc         1 KRJ       0.049200
     43 H22A         0.8260     2.8780     1.4700 hc         1 KRJ       0.049200
     44 H23          4.6830     0.9870     0.1130 hc         1 KRJ       0.052700
     45 H24          4.9640    -1.7400    -1.2220 hc         1 KRJ       0.046700
     46 H24A         4.7770    -0.1970    -2.0400 hc         1 KRJ       0.046700
     47 H25          7.1740    -0.9240    -1.9360 h1         1 KRJ       0.052200
     48 H25A         6.9100     0.6090    -1.1290 h1         1 KRJ       0.052200
     49 HN26         7.2220    -1.9960     0.1360 hn         1 KRJ       0.402000
     50 H27          7.1210    -0.9320     2.2110 h1         1 KRJ       0.052200
     51 H27A         6.8760     0.6040     1.4030 h1         1 KRJ       0.052200
     52 H28          4.7210    -0.2110     2.2590 hc         1 KRJ       0.046700
     53 H28A         4.9340    -1.7490     1.4380 hc         1 KRJ       0.046700
@<TRIPOS>BOND
     1     1     2 3   
     2     2     3 1   
     3     3     4 2   
     4     3     7 1   
     5     4     5 1   
     6     4    30 1   
     7     5     6 1   
     8     5    29 1   
     9     6     7 2   
    10     6     8 1   
    11     8     9 2   
    12     8    10 1   
    13    10    11 1   
    14    10    31 1   
    15    11    12 ar  
    16    11    16 ar  
    17    12    13 ar  
    18    12    32 1   
    19    13    14 ar  
    20    13    33 1   
    21    14    15 ar  
    22    14    23 1   
    23    15    16 ar  
    24    15    34 1   
    25    16    17 1   
    26    17    18 2   
    27    17    22 1   
    28    18    19 1   
    29    18    35 1   
    30    19    20 1   
    31    19    36 1   
    32    19    37 1   
    33    20    21 1   
    34    20    38 1   
    35    20    39 1   
    36    21    22 1   
    37    21    40 1   
    38    21    41 1   
    39    22    42 1   
    40    22    43 1   
    41    23    24 1   
    42    23    28 1   
    43    23    44 1   
    44    24    25 1   
    45    24    45 1   
    46    24    46 1   
    47    25    26 1   
    48    25    47 1   
    49    25    48 1   
    50    26    27 1   
    51    26    49 1   
    52    27    28 1   
    53    27    50 1   
    54    27    51 1   
    55    28    52 1   
    56    28    53 1   
@<TRIPOS>SUBSTRUCTURE
     1 KRJ         1 TEMP              0 ****  ****    0 ROOT
