@<TRIPOS>MOLECULE
KRJ
   53    56     1     0     0
SMALL
No Charge or Current Charge


@<TRIPOS>ATOM
      1 N01         -6.8320     1.7520    -0.2750 n1         1 KRJ      -0.444000
      2 C02         -6.1230     0.8220    -0.2260 cg         1 KRJ       0.254000
      3 C03         -5.2820    -0.3360    -0.1670 cc         1 KRJ       0.311000
      4 C04         -5.7240    -1.6300    -0.1310 cd         1 KRJ      -0.157000
      5 N05         -4.5700    -2.4020    -0.0790 na         1 KRJ      -0.245500
      6 C06         -3.4790    -1.5420    -0.0850 cd         1 KRJ       0.333000
      7 N07         -3.9130    -0.2790    -0.1380 nc         1 KRJ      -0.629000
      8 C08         -2.0300    -1.9550    -0.0400 c          1 KRJ       0.547600
      9 O09         -1.6540    -3.1270     0.0090 o          1 KRJ      -0.596100
     10 N10         -1.1810    -0.8560    -0.0600 ns         1 KRJ      -0.119000
     11 C11          0.2350    -0.7170    -0.0390 ca         1 KRJ      -0.018000
     12 C12          1.1200    -1.8150     0.0210 ca         1 KRJ      -0.135000
     13 C13          2.5090    -1.6100     0.0560 ca         1 KRJ      -0.082000
     14 C14          3.0410    -0.3060     0.0320 ca         1 KRJ      -0.095300
     15 C15          2.1590     0.7890    -0.0290 ca         1 KRJ      -0.072000
     16 C16          0.7670     0.5910    -0.0670 ca         1 KRJ      -0.091800
     17 C17         -0.1360     1.7740    -0.1300 ce         1 KRJ      -0.086400
     18 C18         -0.8770     2.0360    -1.2340 c2         1 KRJ      -0.200200
     19 C19         -1.8330     3.2150    -1.3540 c6         1 KRJ      -0.043200
     20 C20         -2.1890     3.8220     0.0220 c6         1 KRJ      -0.076400
     21 C21         -0.9130     4.0080     0.8730 c6         1 KRJ      -0.073400
     22 C22         -0.2260     2.6450     1.1310 c6         1 KRJ      -0.033200
     23 C23          4.5590    -0.0690     0.0710 c6         1 KRJ      -0.010400
     24 C24          5.2810    -0.6870    -1.1570 c6         1 KRJ      -0.108400
     25 C25          6.8100    -0.4500    -1.0830 c6         1 KRJ       0.147800
     26 N26          7.3680    -0.9760     0.1870 n7         1 KRJ      -0.844400
     27 C27          6.7330    -0.3710     1.3830 c6         1 KRJ       0.147800
     28 C28          5.2030    -0.6060     1.3780 c6         1 KRJ      -0.108400
     29 HN05        -4.5110    -3.4140    -0.0420 hn         1 KRJ       0.383000
     30 H04         -6.7300    -2.0350    -0.1390 h4         1 KRJ       0.177000
     31 HN10        -1.6720     0.0290    -0.1010 hn         1 KRJ       0.193000
     32 H12          0.7530    -2.8360     0.0450 ha         1 KRJ       0.144000
     33 H13          3.1720    -2.4710     0.1030 ha         1 KRJ       0.114000
     34 H15          2.5530     1.8030    -0.0520 ha         1 KRJ       0.116000
     35 H18         -0.8020     1.3920    -2.1120 ha         1 KRJ       0.176000
     36 H19         -1.3690     3.9850    -1.9850 hc         1 KRJ       0.051700
     37 H19A        -2.7510     2.9020    -1.8700 hc         1 KRJ       0.051700
     38 H20         -2.7010     4.7850    -0.1130 hc         1 KRJ       0.046200
     39 H20A        -2.8920     3.1620     0.5490 hc         1 KRJ       0.046200
     40 H21         -0.2180     4.6800     0.3520 hc         1 KRJ       0.041200
     41 H21A        -1.1600     4.4900     1.8290 hc         1 KRJ       0.041200
     42 H22         -0.7880     2.0950     1.8980 hc         1 KRJ       0.049200
     43 H22A         0.7760     2.8140     1.5500 hc         1 KRJ       0.049200
     44 H23          4.7390     1.0150     0.0420 hc         1 KRJ       0.052700
     45 H24          5.0830    -1.7660    -1.2150 hc         1 KRJ       0.046700
     46 H24A         4.8860    -0.2470    -2.0820 hc         1 KRJ       0.046700
     47 H25          7.3010    -0.9410    -1.9370 h1         1 KRJ       0.052200
     48 H25A         7.0180     0.6280    -1.1590 h1         1 KRJ       0.052200
     49 HN26         7.2010    -1.9890     0.2140 hn         1 KRJ       0.402000
     50 H27          7.1700    -0.8060     2.2950 h1         1 KRJ       0.052200
     51 H27A         6.9390     0.7100     1.4030 h1         1 KRJ       0.052200
     52 H28          4.7520    -0.1090     2.2470 hc         1 KRJ       0.046700
     53 H28A         5.0000    -1.6790     1.4930 hc         1 KRJ       0.046700
@<TRIPOS>BOND
     1     1     2 3   
     2     2     3 1   
     3     3     4 2   
     4     3     7 1   
     5     4     5 1   
     6     4    30 1   
     7     5     6 1   
     8     5    29 1   
     9     6     7 2   
    10     6     8 1   
    11     8     9 2   
    12     8    10 1   
    13    10    11 1   
    14    10    31 1   
    15    11    12 ar  
    16    11    16 ar  
    17    12    13 ar  
    18    12    32 1   
    19    13    14 ar  
    20    13    33 1   
    21    14    15 ar  
    22    14    23 1   
    23    15    16 ar  
    24    15    34 1   
    25    16    17 1   
    26    17    18 2   
    27    17    22 1   
    28    18    19 1   
    29    18    35 1   
    30    19    20 1   
    31    19    36 1   
    32    19    37 1   
    33    20    21 1   
    34    20    38 1   
    35    20    39 1   
    36    21    22 1   
    37    21    40 1   
    38    21    41 1   
    39    22    42 1   
    40    22    43 1   
    41    23    24 1   
    42    23    28 1   
    43    23    44 1   
    44    24    25 1   
    45    24    45 1   
    46    24    46 1   
    47    25    26 1   
    48    25    47 1   
    49    25    48 1   
    50    26    27 1   
    51    26    49 1   
    52    27    28 1   
    53    27    50 1   
    54    27    51 1   
    55    28    52 1   
    56    28    53 1   
@<TRIPOS>SUBSTRUCTURE
     1 KRJ         1 TEMP              0 ****  ****    0 ROOT
