@<TRIPOS>MOLECULE
KRK
   34    37     1     0     0
SMALL
abcg2


@<TRIPOS>ATOM
      1 C11         18.5580   -54.6420    35.1950 cc         1 KRK      -0.026000
      2 C12         19.3590   -54.8170    34.1020 cd         1 KRK      -0.160000
      3 C13         20.3020   -53.8150    33.7690 cd         1 KRK       0.291900
      4 N           15.1130   -56.3110    38.0240 nh         1 KRK      -0.791300
      5 C           13.6740   -58.1490    37.8100 c5         1 KRK      -0.123400
      6 C1          14.0260   -56.9840    38.7380 c5         1 KRK       0.245800
      7 C10         18.7120   -53.4600    35.9420 cc         1 KRK      -0.086000
      8 C2          15.6270   -57.0940    36.9040 c5         1 KRK       0.214800
      9 C3          14.9740   -58.4500    37.0890 c5         1 KRK       0.170300
     10 C4          15.6030   -55.1020    38.3670 ca         1 KRK       0.400900
     11 C5          15.5860   -53.3060    39.7570 ca         1 KRK       0.152900
     12 C6          16.5960   -52.6990    39.0320 ca         1 KRK      -0.282000
     13 C7          17.0820   -53.4020    37.9220 ca         1 KRK       0.275800
     14 C8          18.1410   -52.8690    37.0810 cd         1 KRK      -0.357400
     15 C9          18.8280   -51.6490    37.2180 cd         1 KRK       0.390500
     16 F           15.7980   -59.2400    37.9360 f          1 KRK      -0.269000
     17 N1          15.0740   -54.4990    39.4540 nb         1 KRK      -0.246000
     18 N2          19.7500   -51.4610    36.2720 nc         1 KRK      -0.522100
     19 N3          19.6740   -52.5600    35.5030 na         1 KRK       0.414200
     20 N4          20.4690   -52.7050    34.4440 nc         1 KRK      -0.423800
     21 N5          16.5830   -54.5990    37.5920 nb         1 KRK      -0.277000
     22 H10         17.8200   -55.3640    35.5040 ha         1 KRK       0.158000
     23 H11         19.2890   -55.7040    33.4890 ha         1 KRK       0.135000
     24 H12         20.9510   -53.9260    32.9090 h4         1 KRK       0.043100
     25 H1          12.9360   -57.8350    37.0690 hc         1 KRK       0.068200
     26 H           13.2840   -59.0180    38.3370 hc         1 KRK       0.068200
     27 H2          13.1880   -56.3070    38.8970 h1         1 KRK       0.064700
     28 H3          14.3670   -57.3330    39.7170 h1         1 KRK       0.064700
     29 H5          16.7140   -57.1680    36.9260 h1         1 KRK       0.064200
     30 H4          15.3360   -56.6570    35.9430 h1         1 KRK       0.064200
     31 H6          14.8620   -59.0090    36.1630 h1         1 KRK       0.071700
     32 H7          15.1660   -52.8130    40.6280 h4         1 KRK       0.020100
     33 H8          16.9820   -51.7320    39.3160 ha         1 KRK       0.132000
     34 H9          18.6910   -50.8920    37.9730 h4         1 KRK       0.053800
@<TRIPOS>BOND
     1     1     2 2   
     2     1     7 1   
     3     1    22 1   
     4     2     3 1   
     5     2    23 1   
     6     3    20 2   
     7     3    24 1   
     8     4     6 1   
     9     4     8 1   
    10     4    10 1   
    11     5     6 1   
    12     5     9 1   
    13     5    25 1   
    14     5    26 1   
    15     6    27 1   
    16     6    28 1   
    17     7    14 2   
    18     7    19 1   
    19     8     9 1   
    20     8    29 1   
    21     8    30 1   
    22     9    16 1   
    23     9    31 1   
    24    10    17 ar  
    25    10    21 ar  
    26    11    12 ar  
    27    11    17 ar  
    28    11    32 1   
    29    12    13 ar  
    30    12    33 1   
    31    13    14 1   
    32    13    21 ar  
    33    14    15 1   
    34    15    18 2   
    35    15    34 1   
    36    18    19 1   
    37    19    20 1   
@<TRIPOS>SUBSTRUCTURE
     1 KRK         1 TEMP              0 ****  ****    0 ROOT
