@<TRIPOS>MOLECULE
KRK
   34    37     1     0     0
SMALL
No Charge or Current Charge


@<TRIPOS>ATOM
      1 C11         18.3370   -54.3760    34.9690 cc         1 KRK      -0.026000
      2 C12         19.1360   -54.5380    33.8640 cd         1 KRK      -0.160000
      3 C13         20.2940   -53.6800    33.7130 cd         1 KRK       0.291900
      4 N           15.1130   -56.3720    38.0380 nh         1 KRK      -0.791300
      5 C           13.6440   -58.1980    37.8100 c5         1 KRK      -0.123400
      6 C1          13.9890   -57.0250    38.7640 c5         1 KRK       0.245800
      7 C10         18.7470   -53.3600    35.8680 cc         1 KRK      -0.086000
      8 C2          15.7430   -57.2950    37.0450 c5         1 KRK       0.214800
      9 C3          15.0470   -58.6590    37.3400 c5         1 KRK       0.170300
     10 C4          15.5880   -55.0710    38.3200 ca         1 KRK       0.400900
     11 C5          15.4460   -53.1620    39.5800 ca         1 KRK       0.152900
     12 C6          16.5100   -52.6100    38.8510 ca         1 KRK      -0.282000
     13 C7          17.0650   -53.3800    37.8160 ca         1 KRK       0.275800
     14 C8          18.2240   -52.8970    37.0490 cd         1 KRK      -0.357400
     15 C9          19.1190   -51.8590    37.4480 cd         1 KRK       0.390500
     16 F           15.7040   -59.3610    38.3600 f          1 KRK      -0.269000
     17 N1          14.9800   -54.3950    39.3160 nb         1 KRK      -0.246000
     18 N2          20.1200   -51.6450    36.6030 nc         1 KRK      -0.522100
     19 N3          19.8600   -52.5820    35.6470 na         1 KRK       0.414200
     20 N4          20.6900   -52.7100    34.5550 nc         1 KRK      -0.423800
     21 N5          16.6120   -54.6220    37.5680 nb         1 KRK      -0.277000
     22 H10         17.4510   -54.9780    35.1380 ha         1 KRK       0.158000
     23 H11         18.9090   -55.2890    33.1160 ha         1 KRK       0.135000
     24 H12         20.9440   -53.7830    32.8540 h4         1 KRK       0.043100
     25 H1          13.0410   -57.8510    36.9630 hc         1 KRK       0.068200
     26 H           13.0810   -58.9920    38.3110 hc         1 KRK       0.068200
     27 H2          13.1250   -56.3600    38.9040 h1         1 KRK       0.064700
     28 H3          14.3110   -57.3890    39.7500 h1         1 KRK       0.064700
     29 H5          16.8320   -57.3730    37.1720 h1         1 KRK       0.064200
     30 H4          15.5390   -56.9670    36.0160 h1         1 KRK       0.064200
     31 H6          15.0080   -59.3060    36.4540 h1         1 KRK       0.071700
     32 H7          14.9640   -52.6130    40.3880 h4         1 KRK       0.020100
     33 H8          16.8740   -51.6140    39.0830 ha         1 KRK       0.132000
     34 H9          19.0680   -51.2560    38.3460 h4         1 KRK       0.053800
@<TRIPOS>BOND
     1     1     2 2   
     2     1     7 1   
     3     1    22 1   
     4     2     3 1   
     5     2    23 1   
     6     3    20 2   
     7     3    24 1   
     8     4     6 1   
     9     4     8 1   
    10     4    10 1   
    11     5     6 1   
    12     5     9 1   
    13     5    25 1   
    14     5    26 1   
    15     6    27 1   
    16     6    28 1   
    17     7    14 2   
    18     7    19 1   
    19     8     9 1   
    20     8    29 1   
    21     8    30 1   
    22     9    16 1   
    23     9    31 1   
    24    10    17 ar  
    25    10    21 ar  
    26    11    12 ar  
    27    11    17 ar  
    28    11    32 1   
    29    12    13 ar  
    30    12    33 1   
    31    13    14 1   
    32    13    21 ar  
    33    14    15 1   
    34    15    18 2   
    35    15    34 1   
    36    18    19 1   
    37    19    20 1   
@<TRIPOS>SUBSTRUCTURE
     1 KRK         1 TEMP              0 ****  ****    0 ROOT
