@<TRIPOS>MOLECULE
KRL
   56    59     1     0     0
SMALL
No Charge or Current Charge


@<TRIPOS>ATOM
      1 C01         -7.5810     1.4430     0.8870 c3         1 KRL       0.151100
      2 N02         -7.1090     0.5680    -0.2130 n3         1 KRL      -0.713600
      3 C03         -6.3340     1.3020    -1.2630 c6         1 KRL       0.160300
      4 C04         -4.9170     1.7610    -0.7780 c6         1 KRL       0.160800
      5 N05         -4.1130     0.6400    -0.1880 nh         1 KRL      -0.785400
      6 C06         -4.8840    -0.1970     0.7910 c6         1 KRL       0.160800
      7 C07         -6.3020    -0.6000     0.2610 c6         1 KRL       0.160300
      8 C08         -2.7010     0.7130    -0.1040 ca         1 KRL       0.283000
      9 C09         -2.0350     1.9520    -0.0300 ca         1 KRL      -0.156000
     10 C10         -0.6340     2.0130     0.0550 ca         1 KRL      -0.092000
     11 C11          0.1260     0.8250     0.0660 ca         1 KRL      -0.058000
     12 N12          1.5480     0.8060     0.1290 ns         1 KRL      -0.124000
     13 C13          2.5060     1.8000     0.2510 c          1 KRL       0.540600
     14 O14          2.2570     2.9980     0.3430 o          1 KRL      -0.580100
     15 C15          3.8830     1.2400     0.2620 cc         1 KRL       0.085500
     16 C16          5.0520     1.9500     0.3740 cd         1 KRL      -0.118000
     17 C17          6.1050     1.0090     0.3420 cd         1 KRL      -0.130000
     18 C18          5.5340    -0.2290     0.2130 cc         1 KRL       0.217000
     19 C19          6.1690    -1.5040     0.1370 cg         1 KRL       0.238000
     20 N20          6.7090    -2.5390     0.0880 n1         1 KRL      -0.414000
     21 O21          4.1620    -0.1090     0.1600 os         1 KRL      -0.214000
     22 C22         -0.5370    -0.4210    -0.0110 ca         1 KRL       0.226000
     23 C23         -1.9380    -0.4660    -0.0960 ca         1 KRL      -0.157000
     24 N24          0.2120    -1.6210     0.0020 nh         1 KRL      -0.793400
     25 C25         -0.0310    -2.6600    -1.0360 c6         1 KRL       0.183300
     26 C26          1.2340    -3.5270    -1.2500 c6         1 KRL      -0.078900
     27 C27          1.7170    -4.1500     0.0820 c6         1 KRL      -0.075400
     28 C28          1.9230    -3.0450     1.1450 c6         1 KRL      -0.078900
     29 C29          0.6490    -2.1800     1.3100 c6         1 KRL       0.183300
     30 H01         -8.2080     2.2530     0.4920 h1         1 KRL       0.031033
     31 H01A        -8.1850     0.8690     1.6030 h1         1 KRL       0.031033
     32 H01B        -6.7430     1.8940     1.4330 h1         1 KRL       0.031033
     33 H03         -6.1960     0.6510    -2.1400 h1         1 KRL       0.059950
     34 H03A        -6.8940     2.1810    -1.6150 h1         1 KRL       0.059950
     35 H04         -4.3860     2.1920    -1.6390 h1         1 KRL       0.040700
     36 H04A        -5.0370     2.5630    -0.0360 h1         1 KRL       0.040700
     37 H06         -4.3360    -1.1200     1.0290 h1         1 KRL       0.040700
     38 H06A        -4.9990     0.3550     1.7340 h1         1 KRL       0.040700
     39 H07         -6.8370    -1.1440     1.0530 h1         1 KRL       0.059950
     40 H07A        -6.1640    -1.3120    -0.5660 h1         1 KRL       0.059950
     41 H09         -2.6010     2.8780    -0.0260 ha         1 KRL       0.117000
     42 H10         -0.1610     2.9890     0.1070 ha         1 KRL       0.144000
     43 HN12         1.9270    -0.1320     0.0690 hn         1 KRL       0.193000
     44 H16          5.1420     3.0280     0.4690 ha         1 KRL       0.166000
     45 H17          7.1680     1.2200     0.4090 ha         1 KRL       0.158000
     46 H23         -2.4360    -1.4270    -0.1620 ha         1 KRL       0.119000
     47 H25         -0.8690    -3.3050    -0.7340 h1         1 KRL       0.037950
     48 H25A        -0.3040    -2.1860    -1.9910 h1         1 KRL       0.037950
     49 H26          1.0220    -4.3190    -1.9810 hc         1 KRL       0.048200
     50 H26A         2.0320    -2.9080    -1.6800 hc         1 KRL       0.048200
     51 H27          0.9770    -4.8780     0.4410 hc         1 KRL       0.041700
     52 H27A         2.6540    -4.7020    -0.0760 hc         1 KRL       0.041700
     53 H28          2.1930    -3.4960     2.1090 hc         1 KRL       0.048200
     54 H28A         2.7660    -2.4050     0.8530 hc         1 KRL       0.048200
     55 H29          0.8600    -1.3680     2.0220 h1         1 KRL       0.037950
     56 H29A        -0.1560    -2.7940     1.7410 h1         1 KRL       0.037950
@<TRIPOS>BOND
     1     1     2 1   
     2     1    30 1   
     3     1    31 1   
     4     1    32 1   
     5     2     3 1   
     6     2     7 1   
     7     3     4 1   
     8     3    33 1   
     9     3    34 1   
    10     4     5 1   
    11     4    35 1   
    12     4    36 1   
    13     5     6 1   
    14     5     8 1   
    15     6     7 1   
    16     6    37 1   
    17     6    38 1   
    18     7    39 1   
    19     7    40 1   
    20     8     9 ar  
    21     8    23 ar  
    22     9    10 ar  
    23     9    41 1   
    24    10    11 ar  
    25    10    42 1   
    26    11    12 1   
    27    11    22 ar  
    28    12    13 1   
    29    12    43 1   
    30    13    14 2   
    31    13    15 1   
    32    15    16 2   
    33    15    21 1   
    34    16    17 1   
    35    16    44 1   
    36    17    18 2   
    37    17    45 1   
    38    18    19 1   
    39    18    21 1   
    40    19    20 3   
    41    22    23 ar  
    42    22    24 1   
    43    23    46 1   
    44    24    25 1   
    45    24    29 1   
    46    25    26 1   
    47    25    47 1   
    48    25    48 1   
    49    26    27 1   
    50    26    49 1   
    51    26    50 1   
    52    27    28 1   
    53    27    51 1   
    54    27    52 1   
    55    28    29 1   
    56    28    53 1   
    57    28    54 1   
    58    29    55 1   
    59    29    56 1   
@<TRIPOS>SUBSTRUCTURE
     1 KRL         1 TEMP              0 ****  ****    0 ROOT
