@<TRIPOS>MOLECULE
KRL
   56    59     1     0     0
SMALL
bcc


@<TRIPOS>ATOM
      1 C01         -7.4350     1.2010     0.9550 c3         1 KRL       0.151100
      2 N02         -6.9290     0.5790    -0.2520 n3         1 KRL      -0.713600
      3 C03         -6.1890     1.4860    -1.1080 c6         1 KRL       0.160300
      4 C04         -4.7870     1.8220    -0.6060 c6         1 KRL       0.160800
      5 N05         -4.0400     0.5980    -0.3770 nh         1 KRL      -0.647000
      6 C06         -4.7390    -0.3120     0.5250 c6         1 KRL       0.160800
      7 C07         -6.1340    -0.6100    -0.0070 c6         1 KRL       0.160300
      8 C08         -2.6560     0.6970    -0.2350 ca         1 KRL       0.144600
      9 C09         -1.9880     1.9190    -0.1450 ca         1 KRL      -0.174000
     10 C10         -0.6030     1.9840    -0.0600 ca         1 KRL      -0.110000
     11 C11          0.1560     0.8240    -0.0380 ca         1 KRL       0.034600
     12 N12          1.5530     0.7650    -0.0150 ns         1 KRL      -0.450100
     13 C13          2.4330     1.7240     0.3180 c          1 KRL       0.607600
     14 O14          2.1570     2.8680     0.6430 o          1 KRL      -0.580100
     15 C15          3.8490     1.3080     0.2770 cc         1 KRL       0.195200
     16 C16          4.9760     2.0330     0.5170 cd         1 KRL      -0.201300
     17 C17          6.0620     1.1410     0.3530 cd         1 KRL      -0.213300
     18 C18          5.5070    -0.0580     0.0270 cc         1 KRL       0.326700
     19 C19          6.0820    -1.3160    -0.2490 cg         1 KRL       0.148800
     20 N20          6.5660    -2.3370    -0.4700 n1         1 KRL      -0.324800
     21 O21          4.1640     0.0350    -0.0220 os         1 KRL      -0.302800
     22 C22         -0.4980    -0.4220    -0.0990 ca         1 KRL       0.087600
     23 C23         -1.8750    -0.4690    -0.2080 ca         1 KRL      -0.175000
     24 N24          0.3180    -1.5770    -0.0690 nh         1 KRL      -0.655000
     25 C25         -0.0980    -2.6890    -0.9110 c6         1 KRL       0.183300
     26 C26          1.0250    -3.7100    -1.0180 c6         1 KRL      -0.078900
     27 C27          1.4500    -4.1970     0.3620 c6         1 KRL      -0.075400
     28 C28          1.7950    -3.0150     1.2590 c6         1 KRL      -0.078900
     29 C29          0.6580    -2.0070     1.2880 c6         1 KRL       0.183300
     30 H01         -8.1200     2.0080     0.6900 h1         1 KRL       0.031033
     31 H01A        -7.9980     0.4660     1.5330 h1         1 KRL       0.031033
     32 H01B        -6.6730     1.6270     1.6220 h1         1 KRL       0.031033
     33 H03         -6.0960     1.0260    -2.0970 h1         1 KRL       0.059950
     34 H03A        -6.7570     2.4100    -1.2350 h1         1 KRL       0.059950
     35 H04         -4.2860     2.4140    -1.3740 h1         1 KRL       0.040700
     36 H04A        -4.8350     2.4470     0.2990 h1         1 KRL       0.040700
     37 H06         -4.1930    -1.2500     0.6130 h1         1 KRL       0.040700
     38 H06A        -4.7980     0.1170     1.5370 h1         1 KRL       0.040700
     39 H07         -6.6600    -1.2590     0.6960 h1         1 KRL       0.059950
     40 H07A        -6.0380    -1.1620    -0.9480 h1         1 KRL       0.059950
     41 H09         -2.5380     2.8500    -0.1390 ha         1 KRL       0.135000
     42 H10         -0.1310     2.9530    -0.0150 ha         1 KRL       0.162000
     43 HN12         1.8870    -0.1630    -0.2590 hn         1 KRL       0.359500
     44 H16          5.0260     3.0760     0.7770 ha         1 KRL       0.184000
     45 H17          7.1140     1.3500     0.4600 ha         1 KRL       0.176000
     46 H23         -2.3570    -1.4350    -0.2920 ha         1 KRL       0.137000
     47 H25         -0.9960    -3.1900    -0.5170 h1         1 KRL       0.037950
     48 H25A        -0.3550    -2.3010    -1.8980 h1         1 KRL       0.037950
     49 H26          0.6880    -4.5460    -1.6360 hc         1 KRL       0.048200
     50 H26A         1.8770    -3.2550    -1.5320 hc         1 KRL       0.048200
     51 H27          0.6300    -4.7650     0.8150 hc         1 KRL       0.041700
     52 H27A         2.2980    -4.8800     0.2840 hc         1 KRL       0.041700
     53 H28          2.0060    -3.3480     2.2770 hc         1 KRL       0.048200
     54 H28A         2.7010    -2.5220     0.8910 hc         1 KRL       0.048200
     55 H29          0.9460    -1.1360     1.8800 h1         1 KRL       0.037950
     56 H29A        -0.2220    -2.4490     1.7830 h1         1 KRL       0.037950
@<TRIPOS>BOND
     1     1     2 1   
     2     1    30 1   
     3     1    31 1   
     4     1    32 1   
     5     2     3 1   
     6     2     7 1   
     7     3     4 1   
     8     3    33 1   
     9     3    34 1   
    10     4     5 1   
    11     4    35 1   
    12     4    36 1   
    13     5     6 1   
    14     5     8 1   
    15     6     7 1   
    16     6    37 1   
    17     6    38 1   
    18     7    39 1   
    19     7    40 1   
    20     8     9 ar  
    21     8    23 ar  
    22     9    10 ar  
    23     9    41 1   
    24    10    11 ar  
    25    10    42 1   
    26    11    12 1   
    27    11    22 ar  
    28    12    13 1   
    29    12    43 1   
    30    13    14 2   
    31    13    15 1   
    32    15    16 2   
    33    15    21 1   
    34    16    17 1   
    35    16    44 1   
    36    17    18 2   
    37    17    45 1   
    38    18    19 1   
    39    18    21 1   
    40    19    20 3   
    41    22    23 ar  
    42    22    24 1   
    43    23    46 1   
    44    24    25 1   
    45    24    29 1   
    46    25    26 1   
    47    25    47 1   
    48    25    48 1   
    49    26    27 1   
    50    26    49 1   
    51    26    50 1   
    52    27    28 1   
    53    27    51 1   
    54    27    52 1   
    55    28    29 1   
    56    28    53 1   
    57    28    54 1   
    58    29    55 1   
    59    29    56 1   
@<TRIPOS>SUBSTRUCTURE
     1 KRL         1 TEMP              0 ****  ****    0 ROOT
