@<TRIPOS>MOLECULE
KRM
   43    46     1     0     0
SMALL
No Charge or Current Charge


@<TRIPOS>ATOM
      1 C24         -5.8390    -0.2720     0.7050 c6         1 KRM       0.161800
      2 C23         -7.1090     0.2610    -0.0210 c6         1 KRM       0.147100
      3 O22         -7.0210     1.6880    -0.2280 os         1 KRM      -0.447000
      4 C21         -5.8880     2.0540    -1.0460 c6         1 KRM       0.147100
      5 C20         -4.5500     1.6090    -0.3830 c6         1 KRM       0.161800
      6 N19         -4.5590     0.1690     0.0500 nh         1 KRM      -0.728300
      7 C16         -3.3970    -0.5700     0.1810 cc         1 KRM       0.485900
      8 C15         -2.1170    -0.0680    -0.1000 cc         1 KRM      -0.256000
      9 N17         -3.3840    -1.8200     0.5880 nd         1 KRM      -0.572800
     10 N18         -2.0240    -2.1400     0.5640 na         1 KRM      -0.004200
     11 C14         -1.2230    -1.0680     0.1420 cd         1 KRM      -0.063000
     12 C11          0.2470    -1.0520     0.0040 ca         1 KRM      -0.052000
     13 C10          1.0090    -2.2020     0.3060 ca         1 KRM      -0.067000
     14 C9           2.4090    -2.1860     0.1750 ca         1 KRM      -0.152000
     15 C12          0.9160     0.1110    -0.4350 ca         1 KRM      -0.067000
     16 C13          2.3160     0.1260    -0.5650 ca         1 KRM      -0.152000
     17 C8           3.0660    -1.0220    -0.2490 ca         1 KRM       0.140100
     18 O7           4.4360    -1.0380    -0.3810 os         1 KRM      -0.253200
     19 C6           5.2320     0.0400    -0.0600 ca         1 KRM       0.101100
     20 C1           4.9540     0.8420     1.0650 ca         1 KRM      -0.126000
     21 C5           6.3580     0.3130    -0.8550 ca         1 KRM      -0.126000
     22 C4           7.1950     1.3990    -0.5410 ca         1 KRM      -0.095500
     23 C3           6.9100     2.2070     0.5740 ca         1 KRM      -0.116000
     24 C2           5.7920     1.9270     1.3780 ca         1 KRM      -0.095500
     25 H241        -5.8570     0.0780     1.7470 h1         1 KRM       0.051200
     26 H242        -5.9080    -1.3690     0.7370 h1         1 KRM       0.051200
     27 H231        -7.2200    -0.2390    -0.9950 h1         1 KRM       0.051950
     28 H232        -8.0020     0.0370     0.5790 h1         1 KRM       0.051950
     29 H211        -5.9900     1.5800    -2.0330 h1         1 KRM       0.051950
     30 H212        -5.8860     3.1430    -1.1930 h1         1 KRM       0.051950
     31 H201        -3.7510     1.7930    -1.1140 h1         1 KRM       0.051200
     32 H202        -4.3510     2.2550     0.4840 h1         1 KRM       0.051200
     33 H15         -1.8940     0.9350    -0.4370 ha         1 KRM       0.144000
     34 H18         -1.6930    -3.0640     0.8340 hn         1 KRM       0.371000
     35 H10          0.5260    -3.1150     0.6420 ha         1 KRM       0.116000
     36 H12          0.3580     1.0100    -0.6820 ha         1 KRM       0.116000
     37 H9           2.9880    -3.0760     0.4080 ha         1 KRM       0.131000
     38 H13          2.8140     1.0260    -0.9160 ha         1 KRM       0.131000
     39 H1           4.0970     0.6230     1.6980 ha         1 KRM       0.128500
     40 H5           6.5780    -0.3140    -1.7150 ha         1 KRM       0.128500
     41 H2           5.5760     2.5490     2.2450 ha         1 KRM       0.117500
     42 H4           8.0640     1.6130    -1.1610 ha         1 KRM       0.117500
     43 H3           7.5580     3.0460     0.8170 ha         1 KRM       0.117000
@<TRIPOS>BOND
     1     1     2 1   
     2     1     6 1   
     3     1    25 1   
     4     1    26 1   
     5     2     3 1   
     6     2    27 1   
     7     2    28 1   
     8     3     4 1   
     9     4     5 1   
    10     4    29 1   
    11     4    30 1   
    12     5     6 1   
    13     5    31 1   
    14     5    32 1   
    15     6     7 1   
    16     7     8 1   
    17     7     9 2   
    18     8    11 2   
    19     8    33 1   
    20     9    10 1   
    21    10    11 1   
    22    10    34 1   
    23    11    12 1   
    24    12    13 ar  
    25    12    15 ar  
    26    13    14 ar  
    27    13    35 1   
    28    14    17 ar  
    29    14    37 1   
    30    15    16 ar  
    31    15    36 1   
    32    16    17 ar  
    33    16    38 1   
    34    17    18 1   
    35    18    19 1   
    36    19    20 ar  
    37    19    21 ar  
    38    20    24 ar  
    39    20    39 1   
    40    21    22 ar  
    41    21    40 1   
    42    22    23 ar  
    43    22    42 1   
    44    23    24 ar  
    45    23    43 1   
    46    24    41 1   
@<TRIPOS>SUBSTRUCTURE
     1 KRM         1 TEMP              0 ****  ****    0 ROOT
