@<TRIPOS>MOLECULE
KRM
   43    46     1     0     0
SMALL
abcg2


@<TRIPOS>ATOM
      1 C24         -5.7200    -0.3560     0.5210 c6         1 KRM       0.161800
      2 C23         -7.0200     0.1720    -0.0530 c6         1 KRM       0.147100
      3 O22         -7.0120     1.5770    -0.1630 os         1 KRM      -0.447000
      4 C21         -5.9620     1.9930    -1.0060 c6         1 KRM       0.147100
      5 C20         -4.6110     1.5570    -0.4760 c6         1 KRM       0.161800
      6 N19         -4.5980     0.1200    -0.2680 nh         1 KRM      -0.728300
      7 C16         -3.3680    -0.4400     0.0190 cc         1 KRM       0.485900
      8 C15         -2.0930     0.0390    -0.3590 cc         1 KRM      -0.256000
      9 N17         -3.2670    -1.5730     0.6940 nd         1 KRM      -0.572800
     10 N18         -1.9560    -1.8380     0.7330 na         1 KRM      -0.004200
     11 C14         -1.2060    -0.9010     0.1300 cd         1 KRM      -0.063000
     12 C11          0.2510    -0.9580     0.0560 ca         1 KRM      -0.052000
     13 C10          0.9560    -2.1440     0.2680 ca         1 KRM      -0.067000
     14 C9           2.3370    -2.1740     0.2100 ca         1 KRM      -0.152000
     15 C12          0.9800     0.1950    -0.2370 ca         1 KRM      -0.067000
     16 C13          2.3620     0.1760    -0.3120 ca         1 KRM      -0.152000
     17 C8           3.0440    -1.0130    -0.0800 ca         1 KRM       0.140100
     18 O7           4.3980    -1.1240    -0.1650 os         1 KRM      -0.253200
     19 C6           5.1830    -0.0190     0.0510 ca         1 KRM       0.101100
     20 C1           5.1500     0.6490     1.2690 ca         1 KRM      -0.126000
     21 C5           6.0500     0.3750    -0.9550 ca         1 KRM      -0.126000
     22 C4           6.9020     1.4500    -0.7350 ca         1 KRM      -0.095500
     23 C3           6.8770     2.1310     0.4740 ca         1 KRM      -0.116000
     24 C2           6.0000     1.7260     1.4730 ca         1 KRM      -0.095500
     25 H241        -5.6240    -0.0570     1.5750 h1         1 KRM       0.051200
     26 H242        -5.7480    -1.4460     0.4980 h1         1 KRM       0.051200
     27 H231        -7.1990    -0.2850    -1.0360 h1         1 KRM       0.051950
     28 H232        -7.8480    -0.1040     0.6020 h1         1 KRM       0.051950
     29 H211        -6.1040     1.5910    -2.0190 h1         1 KRM       0.051950
     30 H212        -5.9980     3.0820    -1.0690 h1         1 KRM       0.051950
     31 H201        -3.8560     1.8320    -1.2140 h1         1 KRM       0.051200
     32 H202        -4.3740     2.1000     0.4510 h1         1 KRM       0.051200
     33 H15         -1.8480     0.9250    -0.9200 ha         1 KRM       0.144000
     34 H18         -1.6390    -2.6390     1.2530 hn         1 KRM       0.371000
     35 H10          0.4340    -3.0690     0.4790 ha         1 KRM       0.116000
     36 H12          0.4640     1.1310    -0.4080 ha         1 KRM       0.116000
     37 H9           2.8690    -3.1010     0.3840 ha         1 KRM       0.131000
     38 H13          2.8930     1.0890    -0.5500 ha         1 KRM       0.131000
     39 H1           4.4740     0.3300     2.0530 ha         1 KRM       0.128500
     40 H5           6.0620    -0.1560    -1.8980 ha         1 KRM       0.128500
     41 H2           5.9790     2.2470     2.4210 ha         1 KRM       0.117500
     42 H4           7.5820     1.7580    -1.5180 ha         1 KRM       0.117500
     43 H3           7.5390     2.9700     0.6390 ha         1 KRM       0.117000
@<TRIPOS>BOND
     1     1     2 1   
     2     1     6 1   
     3     1    25 1   
     4     1    26 1   
     5     2     3 1   
     6     2    27 1   
     7     2    28 1   
     8     3     4 1   
     9     4     5 1   
    10     4    29 1   
    11     4    30 1   
    12     5     6 1   
    13     5    31 1   
    14     5    32 1   
    15     6     7 1   
    16     7     8 1   
    17     7     9 2   
    18     8    11 2   
    19     8    33 1   
    20     9    10 1   
    21    10    11 1   
    22    10    34 1   
    23    11    12 1   
    24    12    13 ar  
    25    12    15 ar  
    26    13    14 ar  
    27    13    35 1   
    28    14    17 ar  
    29    14    37 1   
    30    15    16 ar  
    31    15    36 1   
    32    16    17 ar  
    33    16    38 1   
    34    17    18 1   
    35    18    19 1   
    36    19    20 ar  
    37    19    21 ar  
    38    20    24 ar  
    39    20    39 1   
    40    21    22 ar  
    41    21    40 1   
    42    22    23 ar  
    43    22    42 1   
    44    23    24 ar  
    45    23    43 1   
    46    24    41 1   
@<TRIPOS>SUBSTRUCTURE
     1 KRM         1 TEMP              0 ****  ****    0 ROOT
