@<TRIPOS>MOLECULE
KRN
   25    25     1     0     0
SMALL
No Charge or Current Charge


@<TRIPOS>ATOM
      1 C10         32.2790    29.9030     8.1350 c3         1 KRN      -0.205400
      2 C11         32.2280    31.0790     9.1260 c          1 KRN       0.714000
      3 C12         31.7190    28.6030     8.7780 c3         1 KRN      -0.029400
      4 O13         33.1620    31.2180     9.9010 o          1 KRN      -0.744500
      5 O14         31.2450    31.8040     9.1190 o          1 KRN      -0.744500
      6 C15         30.2080    28.6260     9.1420 c3         1 KRN       0.215600
      7 C16         29.8020    27.3840     9.9440 ca         1 KRN      -0.132300
      8 C17         29.8450    26.1110     9.3320 ca         1 KRN      -0.075000
      9 C18         29.4850    24.9590    10.0510 ca         1 KRN      -0.165000
     10 C19         29.0790    25.0610    11.3890 ca         1 KRN      -0.086000
     11 C20         29.0330    26.3190    12.0090 ca         1 KRN      -0.224000
     12 C21         29.3920    27.4750    11.2960 ca         1 KRN       0.149100
     13 O22         29.3400    28.6790    11.9350 oh         1 KRN      -0.494100
     14 O23         29.4180    28.6920     7.9450 oh         1 KRN      -0.658000
     15 H1          31.6630    30.1100     7.2520 hc         1 KRN       0.023700
     16 H2          33.3220    29.6680     7.8910 hc         1 KRN       0.023700
     17 H3          31.9120    27.7660     8.0960 hc         1 KRN       0.024700
     18 H4          32.2930    28.3930     9.6890 hc         1 KRN       0.024700
     19 H6          30.0250    29.5220     9.7510 h1         1 KRN       0.092700
     20 H7          30.1580    26.0150     8.2940 ha         1 KRN       0.122000
     21 H8          29.5220    23.9850     9.5670 ha         1 KRN       0.100000
     22 H9          28.8000    24.1670    11.9440 ha         1 KRN       0.095000
     23 H10         28.7190    26.3890    13.0470 ha         1 KRN       0.100000
     24 H11         29.0380    28.5230    12.8550 ho         1 KRN       0.449000
     25 H12         28.4820    28.6260     8.2280 ho         1 KRN       0.421000
@<TRIPOS>BOND
     1     1     2 1   
     2     1     3 1   
     3     1    15 1   
     4     1    16 1   
     5     2     4 1   
     6     2     5 1   
     7     3     6 1   
     8     3    17 1   
     9     3    18 1   
    10     6     7 1   
    11     6    14 1   
    12     6    19 1   
    13     7     8 ar  
    14     7    12 ar  
    15     8     9 ar  
    16     8    20 1   
    17     9    10 ar  
    18     9    21 1   
    19    10    11 ar  
    20    10    22 1   
    21    11    12 ar  
    22    11    23 1   
    23    12    13 1   
    24    13    24 1   
    25    14    25 1   
@<TRIPOS>SUBSTRUCTURE
     1 KRN         1 TEMP              0 ****  ****    0 ROOT
