@<TRIPOS>MOLECULE
KRN
   25    25     1     0     0
SMALL
bcc


@<TRIPOS>ATOM
      1 C10         32.1640    29.8970     8.2560 c3         1 KRN      -0.205400
      2 C11         31.9260    31.2650     8.9300 c          1 KRN       0.924600
      3 C12         31.6680    28.6690     9.0090 c3         1 KRN      -0.029400
      4 O13         31.5830    31.2730    10.1300 o          1 KRN      -0.849800
      5 O14         32.1330    32.2670     8.2150 o          1 KRN      -0.849800
      6 C15         30.1500    28.5590     9.1380 c3         1 KRN       0.192400
      7 C16         29.7760    27.3250     9.9380 ca         1 KRN      -0.132300
      8 C17         29.4820    26.1240     9.3020 ca         1 KRN      -0.093000
      9 C18         29.1570    24.9760    10.0140 ca         1 KRN      -0.183000
     10 C19         29.1190    25.0230    11.3990 ca         1 KRN      -0.104000
     11 C20         29.4100    26.2080    12.0600 ca         1 KRN      -0.242000
     12 C21         29.7420    27.3510    11.3380 ca         1 KRN       0.149100
     13 O22         30.0390    28.5170    11.9540 oh         1 KRN      -0.455100
     14 O23         29.6080    28.5170     7.8350 oh         1 KRN      -0.595800
     15 H1          31.7530    29.9210     7.2440 hc         1 KRN       0.023700
     16 H2          33.2470    29.7950     8.1170 hc         1 KRN       0.023700
     17 H3          32.0330    27.7630     8.5140 hc         1 KRN       0.024700
     18 H4          32.0950    28.6600    10.0130 hc         1 KRN       0.024700
     19 H6          29.7900    29.4480     9.6660 h1         1 KRN       0.092700
     20 H7          29.5020    26.0870     8.2210 ha         1 KRN       0.140000
     21 H8          28.9320    24.0570     9.4900 ha         1 KRN       0.118000
     22 H9          28.8630    24.1420    11.9730 ha         1 KRN       0.113000
     23 H10         29.3790    26.2460    13.1440 ha         1 KRN       0.118000
     24 H11         29.9690    28.4180    12.9100 ho         1 KRN       0.410000
     25 H12         28.6490    28.5690     7.9060 ho         1 KRN       0.382000
@<TRIPOS>BOND
     1     1     2 1   
     2     1     3 1   
     3     1    15 1   
     4     1    16 1   
     5     2     4 1   
     6     2     5 1   
     7     3     6 1   
     8     3    17 1   
     9     3    18 1   
    10     6     7 1   
    11     6    14 1   
    12     6    19 1   
    13     7     8 ar  
    14     7    12 ar  
    15     8     9 ar  
    16     8    20 1   
    17     9    10 ar  
    18     9    21 1   
    19    10    11 ar  
    20    10    22 1   
    21    11    12 ar  
    22    11    23 1   
    23    12    13 1   
    24    13    24 1   
    25    14    25 1   
@<TRIPOS>SUBSTRUCTURE
     1 KRN         1 TEMP              0 ****  ****    0 ROOT
