@<TRIPOS>MOLECULE
KRO
   33    34     1     0     0
SMALL
No Charge or Current Charge


@<TRIPOS>ATOM
      1 OAB          1.1670    -2.6680    -0.0680 o          1 KRO      -0.688500
      2 CAN          2.3160    -2.2710     0.0590 c          1 KRO       0.718200
      3 OAE          3.2390    -3.0430     0.2970 o          1 KRO      -0.688500
      4 CAR          2.6540    -0.7900    -0.0570 cc         1 KRO       0.027400
      5 NAL          3.9960    -0.4720     0.1460 ns         1 KRO      -0.494600
      6 CAT          4.5440     0.7670     0.1200 c          1 KRO       0.606000
      7 OAC          5.7280     0.9660     0.3090 o          1 KRO      -0.608000
      8 NAM          3.6590     1.7580    -0.1310 ns         1 KRO      -0.471500
      9 CAU          2.3210     1.6580    -0.3600 c          1 KRO       0.578200
     10 OAD          1.6570     2.6610    -0.5670 o          1 KRO      -0.588000
     11 CAS          1.7790     0.2640    -0.3280 cd         1 KRO      -0.295400
     12 CAK          0.2850     0.1500    -0.5980 c3         1 KRO       0.018800
     13 CAJ         -0.5510     0.1710     0.6990 c3         1 KRO      -0.031100
     14 CAP         -2.0420     0.0170     0.4250 ca         1 KRO      -0.067300
     15 CAI         -2.8680     1.1550     0.3270 ca         1 KRO      -0.091000
     16 CAO         -4.2470     1.0200     0.0680 ca         1 KRO      -0.129300
     17 CAA         -5.1330     2.2550    -0.0370 c3         1 KRO      -0.032800
     18 CAQ         -4.7920    -0.2710    -0.0930 ca         1 KRO       0.143000
     19 FAF         -6.1120    -0.4270    -0.3420 f          1 KRO      -0.201000
     20 CAH         -3.9740    -1.4070     0.0020 ca         1 KRO      -0.156000
     21 CAG         -2.6000    -1.2650     0.2600 ca         1 KRO      -0.077000
     22 H2           4.0400     2.6900    -0.1520 hn         1 KRO       0.319500
     23 H4          -0.0630     0.9640    -1.2450 hc         1 KRO       0.057700
     24 H5           0.0560    -0.7560    -1.1690 hc         1 KRO       0.057700
     25 H6          -0.2090    -0.6330     1.3620 hc         1 KRO       0.053700
     26 H7          -0.3570     1.1080     1.2340 hc         1 KRO       0.053700
     27 H8          -2.4340     2.1450     0.4500 ha         1 KRO       0.113000
     28 H9          -5.6080     2.3140    -1.0230 hc         1 KRO       0.037033
     29 H10         -5.9290     2.2320     0.7170 hc         1 KRO       0.037033
     30 H11         -4.5640     3.1800     0.1120 hc         1 KRO       0.037033
     31 H12         -4.4050    -2.3970    -0.1260 ha         1 KRO       0.122000
     32 H13         -1.9670    -2.1480     0.3290 ha         1 KRO       0.151000
     33 H14          4.6510    -1.2240     0.3410 hn         1 KRO       0.489000
@<TRIPOS>BOND
     1     1     2 1   
     2     2     3 1   
     3     2     4 1   
     4     4     5 1   
     5     4    11 2   
     6     5     6 1   
     7     5    33 1   
     8     6     7 2   
     9     6     8 1   
    10     8     9 1   
    11     8    22 1   
    12     9    10 2   
    13     9    11 1   
    14    11    12 1   
    15    12    13 1   
    16    12    23 1   
    17    12    24 1   
    18    13    14 1   
    19    13    25 1   
    20    13    26 1   
    21    14    15 ar  
    22    14    21 ar  
    23    15    16 ar  
    24    15    27 1   
    25    16    17 1   
    26    16    18 ar  
    27    17    28 1   
    28    17    29 1   
    29    17    30 1   
    30    18    19 1   
    31    18    20 ar  
    32    20    21 ar  
    33    20    31 1   
    34    21    32 1   
@<TRIPOS>SUBSTRUCTURE
     1 KRO         1 TEMP              0 ****  ****    0 ROOT
