@<TRIPOS>MOLECULE
KRO
   33    34     1     0     0
SMALL
abcg2


@<TRIPOS>ATOM
      1 OAB          1.0470    -2.5670     0.0490 o          1 KRO      -0.688500
      2 CAN          2.2420    -2.2530     0.0780 c          1 KRO       0.718200
      3 OAE          3.2300    -2.9960     0.2210 o          1 KRO      -0.688500
      4 CAR          2.5970    -0.7580    -0.0580 cc         1 KRO       0.027400
      5 NAL          3.9250    -0.5300     0.1740 ns         1 KRO      -0.494600
      6 CAT          4.5330     0.6830     0.1580 c          1 KRO       0.606000
      7 OAC          5.7190     0.8520     0.3730 o          1 KRO      -0.608000
      8 NAM          3.6720     1.7110    -0.1240 ns         1 KRO      -0.471500
      9 CAU          2.3180     1.6130    -0.3860 c          1 KRO       0.578200
     10 OAD          1.6750     2.6250    -0.6120 o          1 KRO      -0.588000
     11 CAS          1.7610     0.2650    -0.3620 cd         1 KRO      -0.295400
     12 CAK          0.2900     0.1480    -0.6260 c3         1 KRO       0.018800
     13 CAJ         -0.5370     0.3000     0.6580 c3         1 KRO      -0.031100
     14 CAP         -2.0050     0.0970     0.4090 ca         1 KRO      -0.067300
     15 CAI         -2.8840     1.1730     0.3410 ca         1 KRO      -0.091000
     16 CAO         -4.2440     1.0140     0.0850 ca         1 KRO      -0.129300
     17 CAA         -5.1870     2.1790     0.0250 c3         1 KRO      -0.032800
     18 CAQ         -4.6920    -0.2840    -0.1060 ca         1 KRO       0.143000
     19 FAF         -6.0040    -0.4790    -0.3510 f          1 KRO      -0.201000
     20 CAH         -3.8580    -1.3830    -0.0530 ca         1 KRO      -0.156000
     21 CAG         -2.5100    -1.1850     0.2060 ca         1 KRO      -0.077000
     22 H2           4.0710     2.6410    -0.1350 hn         1 KRO       0.319500
     23 H4          -0.0080     0.9220    -1.3350 hc         1 KRO       0.057700
     24 H5           0.0670    -0.8120    -1.0800 hc         1 KRO       0.057700
     25 H6          -0.1820    -0.4300     1.3870 hc         1 KRO       0.053700
     26 H7          -0.3660     1.2900     1.0870 hc         1 KRO       0.053700
     27 H8          -2.5050     2.1770     0.5000 ha         1 KRO       0.113000
     28 H9          -5.7160     2.2230    -0.9270 hc         1 KRO       0.037033
     29 H10         -5.9410     2.1250     0.8120 hc         1 KRO       0.037033
     30 H11         -4.6480     3.1160     0.1480 hc         1 KRO       0.037033
     31 H12         -4.2570    -2.3770    -0.2080 ha         1 KRO       0.122000
     32 H13         -1.8430    -2.0370     0.2510 ha         1 KRO       0.151000
     33 H14          4.4790    -1.3590     0.3630 hn         1 KRO       0.489000
@<TRIPOS>BOND
     1     1     2 1   
     2     2     3 1   
     3     2     4 1   
     4     4     5 1   
     5     4    11 2   
     6     5     6 1   
     7     5    33 1   
     8     6     7 2   
     9     6     8 1   
    10     8     9 1   
    11     8    22 1   
    12     9    10 2   
    13     9    11 1   
    14    11    12 1   
    15    12    13 1   
    16    12    23 1   
    17    12    24 1   
    18    13    14 1   
    19    13    25 1   
    20    13    26 1   
    21    14    15 ar  
    22    14    21 ar  
    23    15    16 ar  
    24    15    27 1   
    25    16    17 1   
    26    16    18 ar  
    27    17    28 1   
    28    17    29 1   
    29    17    30 1   
    30    18    19 1   
    31    18    20 ar  
    32    20    21 ar  
    33    20    31 1   
    34    21    32 1   
@<TRIPOS>SUBSTRUCTURE
     1 KRO         1 TEMP              0 ****  ****    0 ROOT
