@<TRIPOS>MOLECULE
KRP
   46    47     1     0     0
SMALL
abcg2


@<TRIPOS>ATOM
      1 C1          -2.5730    -2.8550     0.0030 c3         1 KRP      -0.099400
      2 C2          -2.3300    -4.3100    -0.3700 c3         1 KRP      -0.088100
      3 C4          -1.7010    -1.9290    -0.8320 c3         1 KRP       0.103000
      4 N5          -1.8740    -0.5110    -0.4990 n          1 KRP      -0.302000
      5 C6          -1.0470     0.1410     0.3820 cc         1 KRP       0.018400
      6 C7           0.0340    -0.7010     1.0230 c          1 KRP       0.588900
      7 O8          -0.2300    -1.3350     2.0160 o          1 KRP      -0.482100
      8 C9           1.3780    -0.6970     0.4050 ca         1 KRP      -0.182600
      9 C10          1.6290     0.0310    -0.7500 ca         1 KRP      -0.031000
     10 C11          2.9090     0.0010    -1.2960 ca         1 KRP      -0.022000
     11 C12          3.1850     0.7430    -2.4850 cg         1 KRP       0.315000
     12 N13          3.4100     1.3410    -3.4430 n1         1 KRP      -0.434000
     13 C14          3.9230    -0.7420    -0.6990 ca         1 KRP      -0.044000
     14 C15          3.6770    -1.4750     0.4600 ca         1 KRP      -0.087300
     15 C16          4.7760    -2.2570     1.1130 c3         1 KRP      -0.050800
     16 C17          2.3980    -1.4440     0.9970 ca         1 KRP      -0.038000
     17 C18         -1.1680     1.4420     0.7250 cd         1 KRP      -0.232400
     18 C19         -0.2120     2.1250     1.6760 c3         1 KRP       0.010500
     19 C20          0.4880     3.3270     1.0410 c3         1 KRP      -0.088100
     20 C21         -0.8820     2.4870     3.0010 c3         1 KRP      -0.088100
     21 C22         -2.2830     2.1830     0.1560 c          1 KRP       0.590200
     22 O23         -2.5540     3.3460     0.3880 o          1 KRP      -0.521000
     23 N24         -3.0700     1.4540    -0.7140 ns         1 KRP      -0.467500
     24 C25         -2.9380     0.1430    -1.0790 c          1 KRP       0.616000
     25 O26         -3.7010    -0.3940    -1.8540 o          1 KRP      -0.549000
     26 H1          -3.6240    -2.6040    -0.1550 hc         1 KRP       0.060700
     27 H1A         -2.3660    -2.7000     1.0630 hc         1 KRP       0.060700
     28 H2          -2.9600    -4.9730     0.2210 hc         1 KRP       0.037367
     29 H2A         -2.5540    -4.4930    -1.4220 hc         1 KRP       0.037367
     30 H2B         -1.2920    -4.5990    -0.1970 hc         1 KRP       0.037367
     31 H4          -0.6480    -2.1880    -0.7170 h1         1 KRP       0.064700
     32 H4A         -1.9170    -2.0500    -1.8920 h1         1 KRP       0.064700
     33 H10          0.8560     0.6140    -1.2320 ha         1 KRP       0.139000
     34 H14          4.9110    -0.7470    -1.1410 ha         1 KRP       0.131000
     35 H16          5.4570    -1.5910     1.6450 hc         1 KRP       0.051367
     36 H16A         4.3790    -2.9700     1.8330 hc         1 KRP       0.051367
     37 H16B         5.3650    -2.8050     0.3780 hc         1 KRP       0.051367
     38 H17          2.1870    -2.0090     1.8960 ha         1 KRP       0.138000
     39 H19          0.5830     1.4130     1.9170 hc         1 KRP       0.037700
     40 H20         -0.1920     4.1630     0.8870 hc         1 KRP       0.042533
     41 H20A         1.2940     3.6690     1.6930 hc         1 KRP       0.042533
     42 H20B         0.9330     3.0670     0.0790 hc         1 KRP       0.042533
     43 H21         -1.3160     1.6070     3.4770 hc         1 KRP       0.042533
     44 H21A        -0.1450     2.9090     3.6870 hc         1 KRP       0.042533
     45 H21B        -1.6700     3.2250     2.8620 hc         1 KRP       0.042533
     46 HN24        -3.8530     1.9440    -1.1310 hn         1 KRP       0.346500
@<TRIPOS>BOND
     1     1     2 1   
     2     1     3 1   
     3     1    26 1   
     4     1    27 1   
     5     2    28 1   
     6     2    29 1   
     7     2    30 1   
     8     3     4 1   
     9     3    31 1   
    10     3    32 1   
    11     4     5 1   
    12     4    24 1   
    13     5     6 1   
    14     5    17 2   
    15     6     7 2   
    16     6     8 1   
    17     8     9 ar  
    18     8    16 ar  
    19     9    10 ar  
    20     9    33 1   
    21    10    11 1   
    22    10    13 ar  
    23    11    12 3   
    24    13    14 ar  
    25    13    34 1   
    26    14    15 1   
    27    14    16 ar  
    28    15    35 1   
    29    15    36 1   
    30    15    37 1   
    31    16    38 1   
    32    17    18 1   
    33    17    21 1   
    34    18    19 1   
    35    18    20 1   
    36    18    39 1   
    37    19    40 1   
    38    19    41 1   
    39    19    42 1   
    40    20    43 1   
    41    20    44 1   
    42    20    45 1   
    43    21    22 2   
    44    21    23 1   
    45    23    24 1   
    46    23    46 1   
    47    24    25 2   
@<TRIPOS>SUBSTRUCTURE
     1 KRP         1 TEMP              0 ****  ****    0 ROOT
