@<TRIPOS>MOLECULE
KRP
   46    47     1     0     0
SMALL
No Charge or Current Charge


@<TRIPOS>ATOM
      1 C1          -3.0200    -2.9740     0.0640 c3         1 KRP      -0.099400
      2 C2          -3.0150    -4.4680    -0.3120 c3         1 KRP      -0.088100
      3 C4          -2.1770    -2.1080    -0.8990 c3         1 KRP       0.103000
      4 N5          -2.1130    -0.6740    -0.4950 n          1 KRP      -0.302000
      5 C6          -1.0240    -0.1490     0.2440 cc         1 KRP       0.018400
      6 C7           0.0570    -1.0680     0.7500 c          1 KRP       0.588900
      7 O8          -0.1770    -2.0960     1.3760 o          1 KRP      -0.482100
      8 C9           1.4750    -0.7570     0.3130 ca         1 KRP      -0.182600
      9 C10          1.7360     0.0660    -0.8060 ca         1 KRP      -0.031000
     10 C11          3.0600     0.3460    -1.1920 ca         1 KRP      -0.022000
     11 C12          3.3150     1.1950    -2.3230 cg         1 KRP       0.315000
     12 N13          3.5130     1.8900    -3.2400 n1         1 KRP      -0.434000
     13 C14          4.1340    -0.2070    -0.4700 ca         1 KRP      -0.044000
     14 C15          3.8880    -1.0450     0.6320 ca         1 KRP      -0.087300
     15 C16          5.0500    -1.6460     1.4110 c3         1 KRP      -0.050800
     16 C17          2.5630    -1.3190     1.0170 ca         1 KRP      -0.038000
     17 C18         -1.0100     1.2110     0.5860 cd         1 KRP      -0.232400
     18 C19          0.0080     1.8730     1.5300 c3         1 KRP       0.010500
     19 C20          0.8330     3.0030     0.8670 c3         1 KRP      -0.088100
     20 C21         -0.6350     2.3260     2.8610 c3         1 KRP      -0.088100
     21 C22         -2.1010     2.0990     0.0760 c          1 KRP       0.590200
     22 O23         -2.2040     3.2950     0.2870 o          1 KRP      -0.521000
     23 N24         -3.0360     1.4710    -0.6720 ns         1 KRP      -0.467500
     24 C25         -3.1310     0.1640    -0.9900 c          1 KRP       0.616000
     25 O26         -4.0660    -0.2320    -1.6680 o          1 KRP      -0.549000
     26 H1          -4.0540    -2.6080     0.0630 hc         1 KRP       0.060700
     27 H1A         -2.6500    -2.8620     1.0890 hc         1 KRP       0.060700
     28 H2          -3.6320    -5.0410     0.3910 hc         1 KRP       0.037367
     29 H2A         -3.4180    -4.6160    -1.3210 hc         1 KRP       0.037367
     30 H2B         -1.9960    -4.8720    -0.2820 hc         1 KRP       0.037367
     31 H4          -1.1630    -2.5210    -0.9680 h1         1 KRP       0.064700
     32 H4A         -2.5970    -2.1880    -1.9100 h1         1 KRP       0.064700
     33 H10          0.9180     0.4900    -1.3850 ha         1 KRP       0.139000
     34 H14          5.1580     0.0110    -0.7670 ha         1 KRP       0.131000
     35 H16          5.3330    -0.9990     2.2490 hc         1 KRP       0.051367
     36 H16A         4.7910    -2.6300     1.8190 hc         1 KRP       0.051367
     37 H16B         5.9340    -1.7770     0.7760 hc         1 KRP       0.051367
     38 H17          2.3810    -1.9620     1.8770 ha         1 KRP       0.138000
     39 H19          0.7500     1.1350     1.8450 hc         1 KRP       0.037700
     40 H20          0.2340     3.9060     0.7070 hc         1 KRP       0.042533
     41 H20A         1.6810     3.2790     1.5060 hc         1 KRP       0.042533
     42 H20B         1.2330     2.6840    -0.1010 hc         1 KRP       0.042533
     43 H21         -1.1870     1.4980     3.3210 hc         1 KRP       0.042533
     44 H21A         0.1370     2.6510     3.5690 hc         1 KRP       0.042533
     45 H21B        -1.3280     3.1620     2.7170 hc         1 KRP       0.042533
     46 HN24        -3.7740     2.0580    -1.0260 hn         1 KRP       0.346500
@<TRIPOS>BOND
     1     1     2 1   
     2     1     3 1   
     3     1    26 1   
     4     1    27 1   
     5     2    28 1   
     6     2    29 1   
     7     2    30 1   
     8     3     4 1   
     9     3    31 1   
    10     3    32 1   
    11     4     5 1   
    12     4    24 1   
    13     5     6 1   
    14     5    17 2   
    15     6     7 2   
    16     6     8 1   
    17     8     9 ar  
    18     8    16 ar  
    19     9    10 ar  
    20     9    33 1   
    21    10    11 1   
    22    10    13 ar  
    23    11    12 3   
    24    13    14 ar  
    25    13    34 1   
    26    14    15 1   
    27    14    16 ar  
    28    15    35 1   
    29    15    36 1   
    30    15    37 1   
    31    16    38 1   
    32    17    18 1   
    33    17    21 1   
    34    18    19 1   
    35    18    20 1   
    36    18    39 1   
    37    19    40 1   
    38    19    41 1   
    39    19    42 1   
    40    20    43 1   
    41    20    44 1   
    42    20    45 1   
    43    21    22 2   
    44    21    23 1   
    45    23    24 1   
    46    23    46 1   
    47    24    25 2   
@<TRIPOS>SUBSTRUCTURE
     1 KRP         1 TEMP              0 ****  ****    0 ROOT
