@<TRIPOS>MOLECULE
KRQ
   27    29     1     0     0
SMALL
No Charge or Current Charge


@<TRIPOS>ATOM
      1 C1           2.7270     0.3680    -0.0210 ca         1 KRQ       0.392900
      2 C2           2.9120    -1.9060    -0.0060 ca         1 KRQ       0.152900
      3 C3           1.5120    -2.0050     0.0010 ca         1 KRQ      -0.284000
      4 C4           0.7570    -0.8160    -0.0030 ca         1 KRQ       0.279800
      5 C5          -0.7120    -0.8830     0.0050 cc         1 KRQ      -0.359400
      6 C6          -1.5390    -2.0360     0.0160 cc         1 KRQ       0.389500
      7 C7          -1.5960     0.1700     0.0020 cd         1 KRQ      -0.093000
      8 N1           3.5280    -0.7110    -0.0170 nb         1 KRQ      -0.249000
      9 N2          -2.8430    -1.8000     0.0210 nd         1 KRQ      -0.525100
     10 N3          -2.8520    -0.4290     0.0120 na         1 KRQ       0.430200
     11 N4          -4.0410     0.2710     0.0130 nd         1 KRQ      -0.429800
     12 C8          -1.3970     1.5840    -0.0080 cd         1 KRQ      -0.024000
     13 N            3.3250     1.6190    -0.0320 nu         1 KRQ      -0.931100
     14 C            4.7700     1.9210    -0.0410 c3         1 KRQ       0.235100
     15 C10         -3.8340     1.5910     0.0040 cc         1 KRQ       0.294900
     16 C9          -2.5750     2.2910    -0.0070 cc         1 KRQ      -0.163000
     17 N5           1.3860     0.3760    -0.0140 nb         1 KRQ      -0.283000
     18 H4           3.5460    -2.7910    -0.0040 h4         1 KRQ       0.018100
     19 H5           1.0420    -2.9830     0.0100 ha         1 KRQ       0.133000
     20 H6          -1.2160    -3.0690     0.0220 h4         1 KRQ       0.053800
     21 H7          -0.4340     2.0800    -0.0160 ha         1 KRQ       0.159000
     22 H3           2.6790     2.4100    -0.0340 hn         1 KRQ       0.503000
     23 H            4.9350     3.0070    -0.0490 h1         1 KRQ       0.040033
     24 H1           5.2570     1.5040     0.8510 h1         1 KRQ       0.040033
     25 H2           5.2480     1.4920    -0.9320 h1         1 KRQ       0.040033
     26 H9          -4.7580     2.1520     0.0050 h4         1 KRQ       0.043100
     27 H8          -2.5790     3.3760    -0.0140 ha         1 KRQ       0.136000
@<TRIPOS>BOND
     1     1     8 ar  
     2     1    13 1   
     3     1    17 ar  
     4     2     3 ar  
     5     2     8 ar  
     6     2    18 1   
     7     3     4 ar  
     8     3    19 1   
     9     4     5 1   
    10     4    17 ar  
    11     5     6 1   
    12     5     7 2   
    13     6     9 2   
    14     6    20 1   
    15     7    10 1   
    16     7    12 1   
    17     9    10 1   
    18    10    11 1   
    19    11    15 2   
    20    12    16 2   
    21    12    21 1   
    22    13    14 1   
    23    13    22 1   
    24    14    23 1   
    25    14    24 1   
    26    14    25 1   
    27    15    16 1   
    28    15    26 1   
    29    16    27 1   
@<TRIPOS>SUBSTRUCTURE
     1 KRQ         1 TEMP              0 ****  ****    0 ROOT
