@<TRIPOS>MOLECULE
KRQ
   27    29     1     0     0
SMALL
abcg2


@<TRIPOS>ATOM
      1 C1           2.7160     0.3860    -0.0230 ca         1 KRQ       0.392900
      2 C2           2.9320    -1.8580    -0.0040 ca         1 KRQ       0.152900
      3 C3           1.5630    -2.0240     0.0050 ca         1 KRQ      -0.284000
      4 C4           0.8000    -0.8510    -0.0030 ca         1 KRQ       0.279800
      5 C5          -0.6500    -0.8850     0.0040 cc         1 KRQ      -0.359400
      6 C6          -1.4950    -2.0040     0.0120 cc         1 KRQ       0.389500
      7 C7          -1.5310     0.2000     0.0020 cd         1 KRQ      -0.093000
      8 N1           3.5300    -0.6750    -0.0190 nb         1 KRQ      -0.249000
      9 N2          -2.7770    -1.6810     0.0150 nd         1 KRQ      -0.525100
     10 N3          -2.7890    -0.3550     0.0090 na         1 KRQ       0.430200
     11 N4          -3.9370     0.2950     0.0110 nd         1 KRQ      -0.429800
     12 C8          -1.4540     1.6060    -0.0040 cd         1 KRQ      -0.024000
     13 N            3.2770     1.6050    -0.0360 nu         1 KRQ      -0.931100
     14 C            4.6980     1.8380    -0.0420 c3         1 KRQ       0.235100
     15 C10         -3.8480     1.5920     0.0040 cc         1 KRQ       0.294900
     16 C9          -2.6230     2.3030    -0.0040 cc         1 KRQ      -0.163000
     17 N5           1.3770     0.3430    -0.0160 nb         1 KRQ      -0.283000
     18 H4           3.5860    -2.7240     0.0000 h4         1 KRQ       0.018100
     19 H5           1.1220    -3.0100     0.0170 ha         1 KRQ       0.133000
     20 H6          -1.2170    -3.0460     0.0150 h4         1 KRQ       0.053800
     21 H7          -0.4870     2.0860    -0.0100 ha         1 KRQ       0.159000
     22 H3           2.6530     2.3930    -0.0360 hn         1 KRQ       0.503000
     23 H            4.8630     2.9120    -0.0540 h1         1 KRQ       0.040033
     24 H1           5.1860     1.4290     0.8450 h1         1 KRQ       0.040033
     25 H2           5.1810     1.4080    -0.9210 h1         1 KRQ       0.040033
     26 H9          -4.7930     2.1190     0.0040 h4         1 KRQ       0.043100
     27 H8          -2.6360     3.3830    -0.0080 ha         1 KRQ       0.136000
@<TRIPOS>BOND
     1     1     8 ar  
     2     1    13 1   
     3     1    17 ar  
     4     2     3 ar  
     5     2     8 ar  
     6     2    18 1   
     7     3     4 ar  
     8     3    19 1   
     9     4     5 1   
    10     4    17 ar  
    11     5     6 1   
    12     5     7 2   
    13     6     9 2   
    14     6    20 1   
    15     7    10 1   
    16     7    12 1   
    17     9    10 1   
    18    10    11 1   
    19    11    15 2   
    20    12    16 2   
    21    12    21 1   
    22    13    14 1   
    23    13    22 1   
    24    14    23 1   
    25    14    24 1   
    26    14    25 1   
    27    15    16 1   
    28    15    26 1   
    29    16    27 1   
@<TRIPOS>SUBSTRUCTURE
     1 KRQ         1 TEMP              0 ****  ****    0 ROOT
