@<TRIPOS>MOLECULE
KRS
   41    43     1     0     0
SMALL
No Charge or Current Charge


@<TRIPOS>ATOM
      1 O4           1.0710    -2.2230     1.6960 o          1 KRS      -0.491000
      2 C8           1.0010    -1.1320     1.1510 c          1 KRS       0.693700
      3 C9           2.1870    -0.4290     0.5120 ca         1 KRS      -0.267600
      4 C5           2.1260     0.9650     0.3020 ca         1 KRS       0.030700
      5 C4           3.2230     1.6530    -0.2390 ca         1 KRS      -0.197000
      6 C3           4.3840     0.9590    -0.5840 ca         1 KRS       0.218100
      7 O2           5.4420     1.6270    -1.1110 oh         1 KRS      -0.523100
      8 C2           4.4560    -0.4230    -0.3970 ca         1 KRS      -0.339000
      9 C1           3.3670    -1.1170     0.1490 ca         1 KRS       0.251100
     10 O1           3.4840    -2.4630     0.2930 oh         1 KRS      -0.491100
     11 O3          -0.1870    -0.4400     1.1410 os         1 KRS      -0.453100
     12 C7          -0.3500     0.7860     0.4040 c6         1 KRS       0.195300
     13 C6           0.8510     1.7110     0.6480 c6         1 KRS      -0.080100
     14 C10         -1.6990     1.4200     0.8360 c3         1 KRS      -0.065400
     15 C11         -2.9480     0.5560     0.5150 c6         1 KRS       0.172300
     16 O5          -3.0130     0.4110    -0.9250 os         1 KRS      -0.467000
     17 C12         -4.0910    -0.4170    -1.4290 c6         1 KRS       0.176300
     18 C16         -3.8360    -1.9000    -1.0330 c3         1 KRS      -0.121100
     19 C13         -5.4590     0.1430    -0.9520 c6         1 KRS      -0.105400
     20 C14         -5.4890     0.3740     0.5810 c6         1 KRS      -0.072400
     21 C15         -4.2600     1.2020     1.0300 c6         1 KRS      -0.107400
     22 H1           3.1730     2.7270    -0.3970 ha         1 KRS       0.136000
     23 H2           6.1510     0.9750    -1.2870 ho         1 KRS       0.472000
     24 H3           5.3590    -0.9600    -0.6750 ha         1 KRS       0.117000
     25 H4           4.3750    -2.7200    -0.0190 ho         1 KRS       0.467000
     26 H5          -0.3950     0.5440    -0.6690 h1         1 KRS       0.071700
     27 H6           0.8800     2.0340     1.6980 hc         1 KRS       0.071200
     28 H7           0.7540     2.6170     0.0350 hc         1 KRS       0.071200
     29 H8          -1.6700     1.6230     1.9130 hc         1 KRS       0.056700
     30 H9          -1.8090     2.3970     0.3510 hc         1 KRS       0.056700
     31 H10         -2.8150    -0.4300     0.9840 h1         1 KRS       0.056700
     32 H11         -4.0620    -0.3680    -2.5280 h1         1 KRS       0.065700
     33 H12         -3.9700    -2.0810     0.0390 hc         1 KRS       0.042700
     34 H13         -4.5320    -2.5620    -1.5610 hc         1 KRS       0.042700
     35 H14         -2.8200    -2.2090    -1.3050 hc         1 KRS       0.042700
     36 H15         -5.6530     1.0940    -1.4670 hc         1 KRS       0.047200
     37 H16         -6.2700    -0.5370    -1.2480 hc         1 KRS       0.047200
     38 H17         -6.4150     0.8920     0.8650 hc         1 KRS       0.042700
     39 H18         -5.4990    -0.5900     1.1070 hc         1 KRS       0.042700
     40 H19         -4.2400     1.2760     2.1260 hc         1 KRS       0.046700
     41 H20         -4.3450     2.2280     0.6460 hc         1 KRS       0.046700
@<TRIPOS>BOND
     1     1     2 2   
     2     2     3 1   
     3     2    11 1   
     4     3     4 ar  
     5     3     9 ar  
     6     4     5 ar  
     7     4    13 1   
     8     5     6 ar  
     9     5    22 1   
    10     6     7 1   
    11     6     8 ar  
    12     7    23 1   
    13     8     9 ar  
    14     8    24 1   
    15     9    10 1   
    16    10    25 1   
    17    11    12 1   
    18    12    13 1   
    19    12    14 1   
    20    12    26 1   
    21    13    27 1   
    22    13    28 1   
    23    14    15 1   
    24    14    29 1   
    25    14    30 1   
    26    15    16 1   
    27    15    21 1   
    28    15    31 1   
    29    16    17 1   
    30    17    18 1   
    31    17    19 1   
    32    17    32 1   
    33    18    33 1   
    34    18    34 1   
    35    18    35 1   
    36    19    20 1   
    37    19    36 1   
    38    19    37 1   
    39    20    21 1   
    40    20    38 1   
    41    20    39 1   
    42    21    40 1   
    43    21    41 1   
@<TRIPOS>SUBSTRUCTURE
     1 KRS         1 TEMP              0 ****  ****    0 ROOT
