@<TRIPOS>MOLECULE
KRS
   41    43     1     0     0
SMALL
abcg2


@<TRIPOS>ATOM
      1 O4           0.9530    -2.2060     1.5200 o          1 KRS      -0.491000
      2 C8           0.9400    -1.0970     1.0400 c          1 KRS       0.693700
      3 C9           2.1010    -0.4170     0.4480 ca         1 KRS      -0.267600
      4 C5           2.0820     0.9790     0.2910 ca         1 KRS       0.030700
      5 C4           3.1800     1.6640    -0.1840 ca         1 KRS      -0.197000
      6 C3           4.3330     0.9560    -0.5280 ca         1 KRS       0.218100
      7 O2           5.3740     1.6560    -0.9910 oh         1 KRS      -0.523100
      8 C2           4.3720    -0.4270    -0.4000 ca         1 KRS      -0.339000
      9 C1           3.2680    -1.1180     0.0870 ca         1 KRS       0.251100
     10 O1           3.2940    -2.4480     0.1980 oh         1 KRS      -0.491100
     11 O3          -0.2100    -0.4190     1.0880 os         1 KRS      -0.453100
     12 C7          -0.3640     0.8170     0.3720 c6         1 KRS       0.195300
     13 C6           0.8250     1.7060     0.6590 c6         1 KRS      -0.080100
     14 C10         -1.6840     1.4270     0.8030 c3         1 KRS      -0.065400
     15 C11         -2.9050     0.5730     0.5040 c6         1 KRS       0.172300
     16 O5          -2.9410     0.3650    -0.8960 os         1 KRS      -0.467000
     17 C12         -3.9970    -0.4670    -1.3570 c6         1 KRS       0.176300
     18 C16         -3.8030    -1.9250    -0.9570 c3         1 KRS      -0.121100
     19 C13         -5.3500     0.0980    -0.9270 c6         1 KRS      -0.105400
     20 C14         -5.3960     0.3810     0.5710 c6         1 KRS      -0.072400
     21 C15         -4.1940     1.2240     0.9870 c6         1 KRS      -0.107400
     22 H1           3.1500     2.7400    -0.3010 ha         1 KRS       0.136000
     23 H2           6.1140     1.0740    -1.2010 ho         1 KRS       0.472000
     24 H3           5.2640    -0.9740    -0.6850 ha         1 KRS       0.117000
     25 H4           4.1370    -2.7900    -0.1230 ho         1 KRS       0.467000
     26 H5          -0.3920     0.5900    -0.6990 h1         1 KRS       0.071700
     27 H6           0.8420     1.9830     1.7180 hc         1 KRS       0.071200
     28 H7           0.7420     2.6310     0.0870 hc         1 KRS       0.071200
     29 H8          -1.6530     1.6350     1.8760 hc         1 KRS       0.056700
     30 H9          -1.7880     2.3930     0.3000 hc         1 KRS       0.056700
     31 H10         -2.7990    -0.3890     1.0260 h1         1 KRS       0.056700
     32 H11         -3.9300    -0.4130    -2.4470 h1         1 KRS       0.065700
     33 H12         -3.9520    -2.1030     0.1090 hc         1 KRS       0.042700
     34 H13         -4.5190    -2.5500    -1.4930 hc         1 KRS       0.042700
     35 H14         -2.8010    -2.2680    -1.2180 hc         1 KRS       0.042700
     36 H15         -5.5360     1.0290    -1.4710 hc         1 KRS       0.047200
     37 H16         -6.1430    -0.5970    -1.2170 hc         1 KRS       0.047200
     38 H17         -6.3270     0.8900     0.8290 hc         1 KRS       0.042700
     39 H18         -5.3930    -0.5550     1.1380 hc         1 KRS       0.042700
     40 H19         -4.1600     1.3340     2.0730 hc         1 KRS       0.046700
     41 H20         -4.2780     2.2320     0.5650 hc         1 KRS       0.046700
@<TRIPOS>BOND
     1     1     2 2   
     2     2     3 1   
     3     2    11 1   
     4     3     4 ar  
     5     3     9 ar  
     6     4     5 ar  
     7     4    13 1   
     8     5     6 ar  
     9     5    22 1   
    10     6     7 1   
    11     6     8 ar  
    12     7    23 1   
    13     8     9 ar  
    14     8    24 1   
    15     9    10 1   
    16    10    25 1   
    17    11    12 1   
    18    12    13 1   
    19    12    14 1   
    20    12    26 1   
    21    13    27 1   
    22    13    28 1   
    23    14    15 1   
    24    14    29 1   
    25    14    30 1   
    26    15    16 1   
    27    15    21 1   
    28    15    31 1   
    29    16    17 1   
    30    17    18 1   
    31    17    19 1   
    32    17    32 1   
    33    18    33 1   
    34    18    34 1   
    35    18    35 1   
    36    19    20 1   
    37    19    36 1   
    38    19    37 1   
    39    20    21 1   
    40    20    38 1   
    41    20    39 1   
    42    21    40 1   
    43    21    41 1   
@<TRIPOS>SUBSTRUCTURE
     1 KRS         1 TEMP              0 ****  ****    0 ROOT
