@<TRIPOS>MOLECULE
KRU
   43    46     1     0     0
SMALL
No Charge or Current Charge


@<TRIPOS>ATOM
      1 C2          21.4080   -17.7920    -1.2340 c          1 KRU       0.587100
      2 C3          20.9020   -19.1670    -0.6690 c5         1 KRU       0.012300
      3 C5          19.7090   -20.3680     0.9960 c5         1 KRU      -0.020400
      4 C6          18.6950   -20.3060    -0.1770 c5         1 KRU       0.104600
      5 C8          18.9420   -20.3260     2.3230 ca         1 KRU      -0.119300
      6 C10         18.5480   -21.2840     4.5420 ca         1 KRU      -0.095500
      7 C11         17.5700   -20.3100     4.8010 ca         1 KRU      -0.076000
      8 C12         17.2760   -19.3430     3.8270 ca         1 KRU      -0.095500
      9 C13         17.9560   -19.3490     2.5970 ca         1 KRU      -0.095500
     10 C15         23.6980   -18.4700    -0.2970 c5         1 KRU       0.147300
     11 C16         24.9710   -17.6680    -0.3420 ca         1 KRU      -0.114800
     12 C19         27.1190   -15.8910    -0.5560 ca         1 KRU      -0.089000
     13 C21         24.7610   -16.3860    -0.8060 ca         1 KRU      -0.114800
     14 C22         23.3150   -16.1380    -1.1450 c5         1 KRU       0.147300
     15 O1          20.7500   -17.0540    -1.9580 o          1 KRU      -0.611100
     16 C4          20.4900   -19.0390     0.8220 c5         1 KRU      -0.089400
     17 N7          19.5580   -19.6660    -1.2930 ny         1 KRU      -0.832000
     18 C9          19.2280   -21.2900     3.3120 ca         1 KRU      -0.095500
     19 N14         22.6990   -17.4540    -0.7800 n          1 KRU      -0.368800
     20 C17         26.2540   -18.1020     0.0290 ca         1 KRU      -0.077500
     21 C18         27.3340   -17.2030    -0.0800 ca         1 KRU      -0.089000
     22 C20         25.8230   -15.4750    -0.9220 ca         1 KRU      -0.077500
     23 H23         21.6790   -19.9180    -0.8390 hx         1 KRU       0.112700
     24 H24         20.3690   -21.2400     0.9050 hc         1 KRU       0.073700
     25 H29         17.8410   -19.6550     0.0300 hx         1 KRU       0.110200
     26 H30         18.3160   -21.2860    -0.4860 hx         1 KRU       0.110200
     27 H32         18.7790   -22.0350     5.2940 ha         1 KRU       0.132000
     28 H33         17.0430   -20.3050     5.7530 ha         1 KRU       0.134000
     29 H34         16.5200   -18.5860     4.0250 ha         1 KRU       0.132000
     30 H35         17.7120   -18.5860     1.8620 ha         1 KRU       0.110500
     31 H36         23.7580   -19.3400    -0.9640 h1         1 KRU       0.070950
     32 H40         27.9540   -15.2000    -0.6390 ha         1 KRU       0.131500
     33 H43         23.1900   -15.9070    -2.2110 h1         1 KRU       0.070950
     34 H42         22.8960   -15.3160    -0.5490 h1         1 KRU       0.070950
     35 H28         21.3440   -18.9660     1.5040 hc         1 KRU       0.097200
     36 H27         19.8650   -18.1530     0.9870 hc         1 KRU       0.097200
     37 H26         19.0510   -18.8800    -1.7600 hn         1 KRU       0.520500
     38 H25         19.7140   -20.3160    -2.0960 hn         1 KRU       0.520500
     39 H31         19.9830   -22.0510     3.1280 ha         1 KRU       0.110500
     40 H38         26.4140   -19.1140     0.3950 ha         1 KRU       0.126500
     41 H39         28.3350   -17.5210     0.2020 ha         1 KRU       0.131500
     42 H41         25.6510   -14.4660    -1.2900 ha         1 KRU       0.126500
     43 H37         23.4840   -18.8100     0.7240 h1         1 KRU       0.070950
@<TRIPOS>BOND
     1     1     2 1   
     2     1    15 2   
     3     1    19 1   
     4     2    16 1   
     5     2    17 1   
     6     2    23 1   
     7     3     4 1   
     8     3     5 1   
     9     3    16 1   
    10     3    24 1   
    11     4    17 1   
    12     4    25 1   
    13     4    26 1   
    14     5     9 ar  
    15     5    18 ar  
    16     6     7 ar  
    17     6    18 ar  
    18     6    27 1   
    19     7     8 ar  
    20     7    28 1   
    21     8     9 ar  
    22     8    29 1   
    23     9    30 1   
    24    10    11 1   
    25    10    19 1   
    26    10    31 1   
    27    10    43 1   
    28    11    13 ar  
    29    11    20 ar  
    30    12    21 ar  
    31    12    22 ar  
    32    12    32 1   
    33    13    14 1   
    34    13    22 ar  
    35    14    19 1   
    36    14    33 1   
    37    14    34 1   
    38    16    35 1   
    39    16    36 1   
    40    17    37 1   
    41    17    38 1   
    42    18    39 1   
    43    20    21 ar  
    44    20    40 1   
    45    21    41 1   
    46    22    42 1   
@<TRIPOS>SUBSTRUCTURE
     1 KRU         1 TEMP              0 ****  ****    0 ROOT
