@<TRIPOS>MOLECULE
KRU
   43    46     1     0     0
SMALL
bcc


@<TRIPOS>ATOM
      1 C2          21.4760   -18.0460    -1.1990 c          1 KRU       0.654100
      2 C3          21.0270   -19.4170    -0.7000 c5         1 KRU       0.040500
      3 C5          19.5640   -20.3950     0.9550 c5         1 KRU      -0.020400
      4 C6          18.6950   -19.9050    -0.1940 c5         1 KRU       0.132800
      5 C8          18.8980   -20.3390     2.3020 ca         1 KRU      -0.119300
      6 C10         18.1830   -21.4630     4.3210 ca         1 KRU      -0.113500
      7 C11         17.6840   -20.2690     4.8210 ca         1 KRU      -0.094000
      8 C12         17.7920   -19.1090     4.0630 ca         1 KRU      -0.113500
      9 C13         18.3950   -19.1440     2.8140 ca         1 KRU      -0.113500
     10 C15         23.7140   -18.4480    -0.1730 c5         1 KRU       0.147300
     11 C16         24.9230   -17.5690    -0.2460 ca         1 KRU      -0.114800
     12 C19         26.8790   -15.6500    -0.5710 ca         1 KRU      -0.107000
     13 C21         24.6320   -16.3850    -0.9020 ca         1 KRU      -0.114800
     14 C22         23.2060   -16.3590    -1.3470 c5         1 KRU       0.147300
     15 O1          20.6980   -17.3530    -1.8430 o          1 KRU      -0.611100
     16 C4          20.8090   -19.5140     0.8160 c5         1 KRU      -0.089400
     17 N7          19.6780   -19.6860    -1.3000 ny         1 KRU      -0.778000
     18 C9          18.7840   -21.4950     3.0690 ca         1 KRU      -0.113500
     19 N14         22.7130   -17.6610    -0.8950 n          1 KRU      -0.435800
     20 C17         26.1910   -17.8120     0.2570 ca         1 KRU      -0.095500
     21 C18         27.1700   -16.8420     0.0880 ca         1 KRU      -0.107000
     22 C20         25.6050   -15.4120    -1.0710 ca         1 KRU      -0.095500
     23 H23         21.7020   -20.1990    -1.0500 hx         1 KRU       0.112700
     24 H24         19.8490   -21.4310     0.7510 hc         1 KRU       0.073700
     25 H29         18.2310   -18.9450     0.0250 hx         1 KRU       0.110200
     26 H30         17.9360   -20.6100    -0.5210 hx         1 KRU       0.110200
     27 H32         18.1060   -22.3720     4.9030 ha         1 KRU       0.150000
     28 H33         17.2150   -20.2400     5.7960 ha         1 KRU       0.152000
     29 H34         17.4050   -18.1730     4.4460 ha         1 KRU       0.150000
     30 H35         18.4730   -18.2280     2.2410 ha         1 KRU       0.128500
     31 H36         23.8800   -19.4190    -0.6480 h1         1 KRU       0.070950
     32 H40         27.6510   -14.9030    -0.6950 ha         1 KRU       0.149500
     33 H43         23.1080   -16.2600    -2.4300 h1         1 KRU       0.070950
     34 H42         22.6390   -15.5440    -0.8890 h1         1 KRU       0.070950
     35 H28         21.6700   -19.9530     1.3150 hc         1 KRU       0.097200
     36 H27         20.6340   -18.5260     1.2480 hc         1 KRU       0.097200
     37 H26         19.4220   -18.8730    -1.8790 hn         1 KRU       0.465300
     38 H25         19.7140   -20.4940    -1.9220 hn         1 KRU       0.465300
     39 H31         19.1710   -22.4310     2.6840 ha         1 KRU       0.128500
     40 H38         26.4180   -18.7370     0.7730 ha         1 KRU       0.144500
     41 H39         28.1670   -17.0120     0.4720 ha         1 KRU       0.149500
     42 H41         25.3800   -14.4850    -1.5830 ha         1 KRU       0.144500
     43 H37         23.4180   -18.6260     0.8630 h1         1 KRU       0.070950
@<TRIPOS>BOND
     1     1     2 1   
     2     1    15 2   
     3     1    19 1   
     4     2    16 1   
     5     2    17 1   
     6     2    23 1   
     7     3     4 1   
     8     3     5 1   
     9     3    16 1   
    10     3    24 1   
    11     4    17 1   
    12     4    25 1   
    13     4    26 1   
    14     5     9 ar  
    15     5    18 ar  
    16     6     7 ar  
    17     6    18 ar  
    18     6    27 1   
    19     7     8 ar  
    20     7    28 1   
    21     8     9 ar  
    22     8    29 1   
    23     9    30 1   
    24    10    11 1   
    25    10    19 1   
    26    10    31 1   
    27    10    43 1   
    28    11    13 ar  
    29    11    20 ar  
    30    12    21 ar  
    31    12    22 ar  
    32    12    32 1   
    33    13    14 1   
    34    13    22 ar  
    35    14    19 1   
    36    14    33 1   
    37    14    34 1   
    38    16    35 1   
    39    16    36 1   
    40    17    37 1   
    41    17    38 1   
    42    18    39 1   
    43    20    21 ar  
    44    20    40 1   
    45    21    41 1   
    46    22    42 1   
@<TRIPOS>SUBSTRUCTURE
     1 KRU         1 TEMP              0 ****  ****    0 ROOT
