@<TRIPOS>MOLECULE
KRV
   43    44     1     0     0
SMALL
No Charge or Current Charge


@<TRIPOS>ATOM
      1 C1           2.3230     2.5310    -1.1180 c3         1 KRV       0.106000
      2 C2           2.9570     3.5230    -0.1220 c3         1 KRV      -0.116100
      3 N8           2.2800     1.1330    -0.6010 n          1 KRV      -0.304000
      4 C9           3.3850     0.3190    -0.9230 c          1 KRV       0.616000
      5 N10          3.3200    -0.9610    -0.5220 ns         1 KRV      -0.466500
      6 C11          2.3520    -1.5750     0.1840 c          1 KRV       0.590200
      7 C12          1.1810    -0.7140     0.5310 cc         1 KRV      -0.232400
      8 C13          1.1370     0.6180     0.0680 cd         1 KRV       0.018400
      9 C14         -0.1030     1.4610     0.3240 c          1 KRV       0.588900
     10 O15         -0.0460     2.6440     0.6370 o          1 KRV      -0.482100
     11 C16         -1.4640     0.8570     0.0740 ca         1 KRV      -0.182600
     12 C17         -1.6640    -0.0330    -1.0030 ca         1 KRV      -0.031000
     13 C18         -2.9360    -0.5890    -1.2380 ca         1 KRV      -0.022000
     14 C19         -3.1290    -1.5070    -2.3250 cg         1 KRV       0.315000
     15 N20         -3.2770    -2.2570    -3.2080 n1         1 KRV      -0.433000
     16 C21         -4.0160    -0.2440    -0.4040 ca         1 KRV      -0.044000
     17 C22         -3.8330     0.6620     0.6570 ca         1 KRV      -0.087300
     18 C23         -2.5590     1.2130     0.8890 ca         1 KRV      -0.037000
     19 C24         -5.0030     1.0370     1.5540 c3         1 KRV      -0.050800
     20 C25          0.1870    -1.3740     1.5060 c3         1 KRV       0.010500
     21 C26         -0.5440    -2.6140     0.9320 c3         1 KRV      -0.088100
     22 C27          0.8160    -1.6670     2.8900 c3         1 KRV      -0.088100
     23 O28          2.4980    -2.7470     0.4880 o          1 KRV      -0.521000
     24 O29          4.3670     0.7160    -1.5290 o          1 KRV      -0.550000
     25 H1           1.3140     2.8670    -1.3830 h1         1 KRV       0.064700
     26 H1A          2.8910     2.5660    -2.0570 h1         1 KRV       0.064700
     27 H2           2.9330     4.5400    -0.5310 hc         1 KRV       0.054367
     28 H2A          2.4230     3.5230     0.8350 hc         1 KRV       0.054367
     29 H2B          4.0020     3.2560     0.0720 hc         1 KRV       0.054367
     30 HN10         4.1150    -1.5310    -0.7600 hn         1 KRV       0.346500
     31 H17         -0.8330    -0.2970    -1.6560 ha         1 KRV       0.139000
     32 H21         -4.9990    -0.6760    -0.5840 ha         1 KRV       0.131000
     33 H23         -2.4170     1.9110     1.7130 ha         1 KRV       0.138000
     34 H24         -5.0630     0.3650     2.4190 hc         1 KRV       0.051367
     35 H24A        -4.9050     2.0620     1.9330 hc         1 KRV       0.051367
     36 H24B        -5.9570     0.9770     1.0160 hc         1 KRV       0.051367
     37 H25         -0.6030    -0.6670     1.7610 hc         1 KRV       0.037700
     38 H26          0.1010    -3.4990     0.9250 hc         1 KRV       0.042367
     39 H26A        -1.4240    -2.8520     1.5410 hc         1 KRV       0.042367
     40 H26B        -0.8820    -2.4370    -0.0940 hc         1 KRV       0.042367
     41 H27          1.3080    -0.7700     3.2840 hc         1 KRV       0.042367
     42 H27A         0.0410    -1.9670     3.6060 hc         1 KRV       0.042367
     43 H27B         1.5550    -2.4740     2.8460 hc         1 KRV       0.042367
@<TRIPOS>BOND
     1     1     2 1   
     2     1     3 1   
     3     1    25 1   
     4     1    26 1   
     5     2    27 1   
     6     2    28 1   
     7     2    29 1   
     8     3     4 1   
     9     3     8 1   
    10     4     5 1   
    11     4    24 2   
    12     5     6 1   
    13     5    30 1   
    14     6     7 1   
    15     6    23 2   
    16     7     8 2   
    17     7    20 1   
    18     8     9 1   
    19     9    10 2   
    20     9    11 1   
    21    11    12 ar  
    22    11    18 ar  
    23    12    13 ar  
    24    12    31 1   
    25    13    14 1   
    26    13    16 ar  
    27    14    15 3   
    28    16    17 ar  
    29    16    32 1   
    30    17    18 ar  
    31    17    19 1   
    32    18    33 1   
    33    19    34 1   
    34    19    35 1   
    35    19    36 1   
    36    20    21 1   
    37    20    22 1   
    38    20    37 1   
    39    21    38 1   
    40    21    39 1   
    41    21    40 1   
    42    22    41 1   
    43    22    42 1   
    44    22    43 1   
@<TRIPOS>SUBSTRUCTURE
     1 KRV         1 TEMP              0 ****  ****    0 ROOT
