@<TRIPOS>MOLECULE
KRV
   43    44     1     0     0
SMALL
bcc


@<TRIPOS>ATOM
      1 C1           1.4570     2.3120    -1.0070 c3         1 KRV       0.106000
      2 C2           2.2210     3.3800    -0.2470 c3         1 KRV      -0.116100
      3 N8           1.8220     0.9490    -0.6000 n          1 KRV      -0.371000
      4 C9           2.9560     0.4090    -1.1650 c          1 KRV       0.825500
      5 N10          3.2760    -0.8430    -0.7200 ns         1 KRV      -0.600500
      6 C11          2.6140    -1.6120     0.2170 c          1 KRV       0.732700
      7 C12          1.4240    -0.9900     0.7770 cc         1 KRV      -0.232400
      8 C13          1.1130     0.2530     0.3490 cd         1 KRV       0.018400
      9 C14         -0.0760     0.9750     0.9450 c          1 KRV       0.588900
     10 O15          0.0930     1.7040     1.8930 o          1 KRV      -0.482100
     11 C16         -1.4020     0.7390     0.3320 ca         1 KRV      -0.182600
     12 C17         -1.5460    -0.1360    -0.7360 ca         1 KRV      -0.049000
     13 C18         -2.8130    -0.3300    -1.2780 ca         1 KRV      -0.022000
     14 C19         -2.9770    -1.2310    -2.3740 cg         1 KRV       0.225800
     15 N20         -3.1070    -1.9520    -3.2620 n1         1 KRV      -0.343800
     16 C21         -3.9190     0.3420    -0.7670 ca         1 KRV      -0.062000
     17 C22         -3.7810     1.2260     0.3010 ca         1 KRV      -0.087300
     18 C23         -2.5160     1.4130     0.8400 ca         1 KRV      -0.055000
     19 C24         -4.9780     1.9400     0.8500 c3         1 KRV      -0.050800
     20 C25          0.5910    -1.7340     1.7940 c3         1 KRV       0.010500
     21 C26         -0.0000    -3.0260     1.2280 c3         1 KRV      -0.088100
     22 C27          1.3530    -1.9790     3.0970 c3         1 KRV      -0.088100
     23 O28          3.0420    -2.7140     0.5070 o          1 KRV      -0.596500
     24 O29          3.6220     0.9930    -1.9940 o          1 KRV      -0.625500
     25 H1           0.3840     2.4360    -0.8770 h1         1 KRV       0.064700
     26 H1A          1.6340     2.3950    -2.0770 h1         1 KRV       0.064700
     27 H2           1.8980     4.3640    -0.5850 hc         1 KRV       0.054367
     28 H2A          2.0400     3.3150     0.8250 hc         1 KRV       0.054367
     29 H2B          3.2920     3.3000    -0.4200 hc         1 KRV       0.054367
     30 HN10         4.1090    -1.2490    -1.1310 hn         1 KRV       0.346500
     31 H17         -0.7000    -0.6620    -1.1560 ha         1 KRV       0.157000
     32 H21         -4.8940     0.1760    -1.2080 ha         1 KRV       0.149000
     33 H23         -2.3900     2.0980     1.6680 ha         1 KRV       0.156000
     34 H24         -5.6320     1.2460     1.3800 hc         1 KRV       0.051367
     35 H24A        -4.6890     2.7240     1.5470 hc         1 KRV       0.051367
     36 H24B        -5.5650     2.3950     0.0520 hc         1 KRV       0.051367
     37 H25         -0.2620    -1.1020     2.0580 hc         1 KRV       0.037700
     38 H26          0.7690    -3.7690     1.0240 hc         1 KRV       0.042367
     39 H26A        -0.6990    -3.4580     1.9450 hc         1 KRV       0.042367
     40 H26B        -0.5490    -2.8400     0.3030 hc         1 KRV       0.042367
     41 H27          1.7390    -1.0460     3.5100 hc         1 KRV       0.042367
     42 H27A         0.6860    -2.4220     3.8380 hc         1 KRV       0.042367
     43 H27B         2.1900    -2.6600     2.9530 hc         1 KRV       0.042367
@<TRIPOS>BOND
     1     1     2 1   
     2     1     3 1   
     3     1    25 1   
     4     1    26 1   
     5     2    27 1   
     6     2    28 1   
     7     2    29 1   
     8     3     4 1   
     9     3     8 1   
    10     4     5 1   
    11     4    24 2   
    12     5     6 1   
    13     5    30 1   
    14     6     7 1   
    15     6    23 2   
    16     7     8 2   
    17     7    20 1   
    18     8     9 1   
    19     9    10 2   
    20     9    11 1   
    21    11    12 ar  
    22    11    18 ar  
    23    12    13 ar  
    24    12    31 1   
    25    13    14 1   
    26    13    16 ar  
    27    14    15 3   
    28    16    17 ar  
    29    16    32 1   
    30    17    18 ar  
    31    17    19 1   
    32    18    33 1   
    33    19    34 1   
    34    19    35 1   
    35    19    36 1   
    36    20    21 1   
    37    20    22 1   
    38    20    37 1   
    39    21    38 1   
    40    21    39 1   
    41    21    40 1   
    42    22    41 1   
    43    22    42 1   
    44    22    43 1   
@<TRIPOS>SUBSTRUCTURE
     1 KRV         1 TEMP              0 ****  ****    0 ROOT
