@<TRIPOS>MOLECULE
KRW
   44    48     1     0     0
SMALL
No Charge or Current Charge


@<TRIPOS>ATOM
      1 O28          7.2720     3.0130    -1.2130 oh         1 KRW      -0.660000
      2 C27          5.9460     2.4990    -1.0130 c3         1 KRW       0.143600
      3 C26          5.9490     1.4310     0.0990 c3         1 KRW       0.078600
      4 N12          4.6180     0.8500     0.3340 na         1 KRW       0.134800
      5 C11          4.0590    -0.2260    -0.3490 cc         1 KRW      -0.129000
      6 N13          3.7930     1.3780     1.3060 nc         1 KRW      -0.524800
      7 C14          2.7160     0.6200     1.2210 cd         1 KRW       0.291900
      8 C10          2.8240    -0.3760     0.2260 cd         1 KRW      -0.293500
      9 C1           1.8000    -1.3740    -0.1160 ca         1 KRW       0.449500
     10 N4           0.6470    -1.3230     0.6060 nb         1 KRW      -0.639000
     11 C5          -0.2790    -2.2550     0.2590 ca         1 KRW       0.303500
     12 N9          -1.5320    -2.5160     0.7400 na         1 KRW      -0.030100
     13 N8          -2.1070    -3.5770     0.0630 nc         1 KRW      -0.151400
     14 N7          -1.2290    -4.0020    -0.8410 nd         1 KRW      -0.265000
     15 C6          -0.0940    -3.2010    -0.7430 ca         1 KRW       0.352000
     16 N3           1.0450    -3.2750    -1.4740 nb         1 KRW      -0.543000
     17 C2           1.9920    -2.3470    -1.1480 ca         1 KRW       0.273900
     18 C           -2.2040    -1.7420     1.7930 c3         1 KRW       0.143900
     19 C16         -2.7070    -0.3890     1.3020 ca         1 KRW      -0.126300
     20 C19         -3.7900    -0.3190     0.4060 ca         1 KRW      -0.056000
     21 C20         -4.2490     0.9290    -0.0570 ca         1 KRW      -0.091000
     22 C25         -5.3310     0.9930    -0.9530 ca         1 KRW      -0.053000
     23 C24         -5.7570     2.2560    -1.3910 ca         1 KRW      -0.169000
     24 C23         -5.0930     3.4000    -0.9230 ca         1 KRW       0.359900
     25 N22         -4.0500     3.3440    -0.0620 nb         1 KRW      -0.662000
     26 C21         -3.6290     2.1310     0.3690 ca         1 KRW       0.279000
     27 C18         -2.5470     2.0450     1.2640 ca         1 KRW      -0.085000
     28 C17         -2.0870     0.8000     1.7280 ca         1 KRW      -0.080000
     29 H28          7.2150     3.6920    -1.9240 ho         1 KRW       0.455000
     30 H271         5.2600     3.3090    -0.7290 h1         1 KRW       0.036200
     31 H272         5.5670     2.0480    -1.9410 h1         1 KRW       0.036200
     32 H261         6.6360     0.6220    -0.1760 h1         1 KRW       0.080200
     33 H262         6.3090     1.8790     1.0330 h1         1 KRW       0.080200
     34 H11          4.5720    -0.7560    -1.1440 h4         1 KRW       0.159000
     35 H14          1.8820     0.8130     1.8840 h4         1 KRW       0.052100
     36 H2           2.9170    -2.3820    -1.7210 h4         1 KRW       0.031100
     37 HC1         -3.0490    -2.3270     2.1760 h1         1 KRW       0.081200
     38 HC2         -1.5000    -1.6020     2.6240 h1         1 KRW       0.081200
     39 H19         -4.2720    -1.2350     0.0690 ha         1 KRW       0.123000
     40 H17         -1.2430     0.7630     2.4140 ha         1 KRW       0.127000
     41 H25         -5.8290     0.0900    -1.3010 ha         1 KRW       0.122000
     42 H24         -6.5890     2.3540    -2.0830 ha         1 KRW       0.126000
     43 H23         -5.4030     4.3930    -1.2480 h4         1 KRW       0.020100
     44 H18         -2.0580     2.9550     1.5990 ha         1 KRW       0.135000
@<TRIPOS>BOND
     1     1     2 1   
     2     1    29 1   
     3     2     3 1   
     4     2    30 1   
     5     2    31 1   
     6     3     4 1   
     7     3    32 1   
     8     3    33 1   
     9     4     5 1   
    10     4     6 1   
    11     5     8 2   
    12     5    34 1   
    13     6     7 2   
    14     7     8 1   
    15     7    35 1   
    16     8     9 1   
    17     9    10 ar  
    18     9    17 ar  
    19    10    11 ar  
    20    11    12 1   
    21    11    15 ar  
    22    12    13 1   
    23    12    18 1   
    24    13    14 2   
    25    14    15 1   
    26    15    16 ar  
    27    16    17 ar  
    28    17    36 1   
    29    18    19 1   
    30    18    37 1   
    31    18    38 1   
    32    19    20 ar  
    33    19    28 ar  
    34    20    21 ar  
    35    20    39 1   
    36    21    22 ar  
    37    21    26 ar  
    38    22    23 ar  
    39    22    41 1   
    40    23    24 ar  
    41    23    42 1   
    42    24    25 ar  
    43    24    43 1   
    44    25    26 ar  
    45    26    27 ar  
    46    27    28 ar  
    47    27    44 1   
    48    28    40 1   
@<TRIPOS>SUBSTRUCTURE
     1 KRW         1 TEMP              0 ****  ****    0 ROOT
