@<TRIPOS>MOLECULE
KRW
   44    48     1     0     0
SMALL
abcg2


@<TRIPOS>ATOM
      1 O28          7.2940     2.9570    -1.0270 oh         1 KRW      -0.660000
      2 C27          5.9780     2.5060    -0.8240 c3         1 KRW       0.143600
      3 C26          6.0620     1.2740     0.0660 c3         1 KRW       0.078600
      4 N12          4.7470     0.7360     0.3350 na         1 KRW       0.134800
      5 C11          4.1460    -0.2800    -0.2950 cc         1 KRW      -0.129000
      6 N13          3.9590     1.3140     1.2440 nc         1 KRW      -0.524800
      7 C14          2.8290     0.6460     1.2050 cd         1 KRW       0.291900
      8 C10          2.8750    -0.3870     0.2440 cd         1 KRW      -0.293500
      9 C1           1.8210    -1.3260    -0.0780 ca         1 KRW       0.449500
     10 N4           0.7010    -1.2550     0.6230 nb         1 KRW      -0.639000
     11 C5          -0.2050    -2.1440     0.2500 ca         1 KRW       0.303500
     12 N9          -1.4460    -2.3820     0.7160 na         1 KRW      -0.030100
     13 N8          -1.9960    -3.3790     0.0210 nc         1 KRW      -0.151400
     14 N7          -1.1780    -3.8140    -0.8640 nd         1 KRW      -0.265000
     15 C6          -0.0420    -3.0780    -0.7660 ca         1 KRW       0.352000
     16 N3           1.0830    -3.1600    -1.4740 nb         1 KRW      -0.543000
     17 C2           1.9950    -2.2880    -1.1240 ca         1 KRW       0.273900
     18 C           -2.1910    -1.6640     1.7320 c3         1 KRW       0.143900
     19 C16         -2.7300    -0.3630     1.1990 ca         1 KRW      -0.126300
     20 C19         -3.9280    -0.3290     0.5340 ca         1 KRW      -0.056000
     21 C20         -4.4220     0.8810     0.0020 ca         1 KRW      -0.091000
     22 C25         -5.6510     0.9660    -0.6900 ca         1 KRW      -0.053000
     23 C24         -6.0560     2.1750    -1.1770 ca         1 KRW      -0.169000
     24 C23         -5.2290     3.3000    -0.9690 ca         1 KRW       0.359900
     25 N22         -4.0890     3.2630    -0.3330 nb         1 KRW      -0.662000
     26 C21         -3.6690     2.0710     0.1560 ca         1 KRW       0.279000
     27 C18         -2.4380     2.0140     0.8470 ca         1 KRW      -0.085000
     28 C17         -1.9830     0.8270     1.3520 ca         1 KRW      -0.080000
     29 H28          7.2620     3.7470    -1.5730 ho         1 KRW       0.455000
     30 H271         5.3540     3.2630    -0.3330 h1         1 KRW       0.036200
     31 H272         5.4830     2.2350    -1.7640 h1         1 KRW       0.036200
     32 H261         6.6500     0.4950    -0.4180 h1         1 KRW       0.080200
     33 H262         6.5340     1.5160     1.0180 h1         1 KRW       0.080200
     34 H11          4.6550    -0.8450    -1.0580 h4         1 KRW       0.159000
     35 H14          2.0110     0.9080     1.8580 h4         1 KRW       0.052100
     36 H2           2.9270    -2.3110    -1.6750 h4         1 KRW       0.031100
     37 HC1         -2.9930    -2.3230     2.0600 h1         1 KRW       0.081200
     38 HC2         -1.5270    -1.4990     2.5800 h1         1 KRW       0.081200
     39 H19         -4.5130    -1.2340     0.4130 ha         1 KRW       0.123000
     40 H17         -1.0370     0.7930     1.8780 ha         1 KRW       0.127000
     41 H25         -6.2540     0.0770    -0.8250 ha         1 KRW       0.122000
     42 H24         -6.9880     2.2860    -1.7140 ha         1 KRW       0.126000
     43 H23         -5.5410     4.2660    -1.3530 h4         1 KRW       0.020100
     44 H18         -1.8670     2.9260     0.9680 ha         1 KRW       0.135000
@<TRIPOS>BOND
     1     1     2 1   
     2     1    29 1   
     3     2     3 1   
     4     2    30 1   
     5     2    31 1   
     6     3     4 1   
     7     3    32 1   
     8     3    33 1   
     9     4     5 1   
    10     4     6 1   
    11     5     8 2   
    12     5    34 1   
    13     6     7 2   
    14     7     8 1   
    15     7    35 1   
    16     8     9 1   
    17     9    10 ar  
    18     9    17 ar  
    19    10    11 ar  
    20    11    12 1   
    21    11    15 ar  
    22    12    13 1   
    23    12    18 1   
    24    13    14 2   
    25    14    15 1   
    26    15    16 ar  
    27    16    17 ar  
    28    17    36 1   
    29    18    19 1   
    30    18    37 1   
    31    18    38 1   
    32    19    20 ar  
    33    19    28 ar  
    34    20    21 ar  
    35    20    39 1   
    36    21    22 ar  
    37    21    26 ar  
    38    22    23 ar  
    39    22    41 1   
    40    23    24 ar  
    41    23    42 1   
    42    24    25 ar  
    43    24    43 1   
    44    25    26 ar  
    45    26    27 ar  
    46    27    28 ar  
    47    27    44 1   
    48    28    40 1   
@<TRIPOS>SUBSTRUCTURE
     1 KRW         1 TEMP              0 ****  ****    0 ROOT
