@<TRIPOS>MOLECULE
KRX
   50    52     1     0     0
SMALL
No Charge or Current Charge


@<TRIPOS>ATOM
      1 C1           8.6900     3.2350     0.5300 c3         1 KRX       0.148900
      2 O2           7.3570     2.6940     0.4990 os         1 KRX      -0.340100
      3 C3           7.1060     1.3720     0.1900 ca         1 KRX       0.132100
      4 C4           8.1340     0.4570    -0.1170 ca         1 KRX      -0.184000
      5 C5           7.8130    -0.8740    -0.4240 ca         1 KRX      -0.081000
      6 C6           6.4750    -1.3000    -0.4240 ca         1 KRX      -0.130000
      7 C7           5.4140    -0.4050    -0.1150 cp         1 KRX      -0.121500
      8 C8           5.7690     0.9400     0.1870 ca         1 KRX      -0.102000
      9 C9           3.9730    -0.8540    -0.1120 cp         1 KRX       0.429500
     10 C10          3.5970    -2.2100     0.0460 ca         1 KRX      -0.162000
     11 C11          2.2410    -2.5700     0.0400 ca         1 KRX      -0.023000
     12 C12          1.2740    -1.5580    -0.1220 ca         1 KRX      -0.211600
     13 C13          1.7260    -0.2330    -0.2630 ca         1 KRX       0.368900
     14 N14          3.0330     0.1080    -0.2550 nb         1 KRX      -0.677000
     15 C15         -0.1890    -1.8980    -0.1340 c          1 KRX       0.619700
     16 O16         -0.5830    -3.0480    -0.0080 o          1 KRX      -0.601100
     17 N17         -1.0760    -0.8550    -0.2970 ns         1 KRX      -0.497900
     18 C18         -2.5400    -0.9750    -0.3160 c6         1 KRX       0.110700
     19 C19         -3.1700     0.2250    -1.0560 c6         1 KRX      -0.093400
     20 C20         -4.7140     0.1460    -1.0300 c6         1 KRX       0.184300
     21 N21         -5.2340     0.0750     0.3670 n3         1 KRX      -0.744600
     22 C22         -4.6510    -1.0830     1.1010 c6         1 KRX       0.184300
     23 C23         -3.1070    -1.0250     1.1210 c6         1 KRX      -0.093400
     24 C24         -6.7310     0.0940     0.4580 c3         1 KRX       0.114800
     25 C25         -7.4790     1.3470    -0.0960 c3         1 KRX       0.295000
     26 F26         -7.5880     1.3040    -1.4450 f          1 KRX      -0.117000
     27 F27         -8.7320     1.4090     0.4100 f          1 KRX      -0.117000
     28 F28         -6.8440     2.4950     0.2390 f          1 KRX      -0.117000
     29 H11C         8.6610     4.2990     0.7960 h1         1 KRX       0.040700
     30 H12C         9.3050     2.7150     1.2740 h1         1 KRX       0.040700
     31 H13C         9.1710     3.1440    -0.4520 h1         1 KRX       0.040700
     32 H4           9.1780     0.7570    -0.1240 ha         1 KRX       0.118000
     33 H8           4.9970     1.6650     0.4310 ha         1 KRX       0.147000
     34 H5           8.6050    -1.5800    -0.6670 ha         1 KRX       0.113000
     35 H6           6.2660    -2.3340    -0.6850 ha         1 KRX       0.115000
     36 H10          4.3490    -2.9790     0.1870 ha         1 KRX       0.131000
     37 H11          1.9520    -3.6130     0.1620 ha         1 KRX       0.140000
     38 H13          1.0330     0.5970    -0.3860 h4         1 KRX       0.019100
     39 H17         -0.6800     0.0710    -0.3970 hn         1 KRX       0.315500
     40 H18         -2.8130    -1.9020    -0.8450 h1         1 KRX       0.076700
     41 H191        -2.8480     1.1680    -0.5930 hc         1 KRX       0.058450
     42 H192        -2.8220     0.2490    -2.0970 hc         1 KRX       0.058450
     43 H231        -2.7150    -1.9030     1.6510 hc         1 KRX       0.058450
     44 H232        -2.7810    -0.1420     1.6870 hc         1 KRX       0.058450
     45 H201        -5.1030     1.0360    -1.5450 h1         1 KRX       0.038700
     46 H202        -5.0420    -0.7330    -1.6060 h1         1 KRX       0.038700
     47 H221        -5.0130    -1.0960     2.1400 h1         1 KRX       0.038700
     48 H222        -4.9700    -2.0280     0.6370 h1         1 KRX       0.038700
     49 H241        -7.1410    -0.7880    -0.0540 h1         1 KRX       0.069700
     50 H242        -7.0250    -0.0040     1.5120 h1         1 KRX       0.069700
@<TRIPOS>BOND
     1     1     2 1   
     2     1    29 1   
     3     1    30 1   
     4     1    31 1   
     5     2     3 1   
     6     3     4 ar  
     7     3     8 ar  
     8     4     5 ar  
     9     4    32 1   
    10     5     6 ar  
    11     5    34 1   
    12     6     7 ar  
    13     6    35 1   
    14     7     8 ar  
    15     7     9 1   
    16     8    33 1   
    17     9    10 ar  
    18     9    14 ar  
    19    10    11 ar  
    20    10    36 1   
    21    11    12 ar  
    22    11    37 1   
    23    12    13 ar  
    24    12    15 1   
    25    13    14 ar  
    26    13    38 1   
    27    15    16 2   
    28    15    17 1   
    29    17    18 1   
    30    17    39 1   
    31    18    19 1   
    32    18    23 1   
    33    18    40 1   
    34    19    20 1   
    35    19    41 1   
    36    19    42 1   
    37    20    21 1   
    38    20    45 1   
    39    20    46 1   
    40    21    22 1   
    41    21    24 1   
    42    22    23 1   
    43    22    47 1   
    44    22    48 1   
    45    23    43 1   
    46    23    44 1   
    47    24    25 1   
    48    24    49 1   
    49    24    50 1   
    50    25    26 1   
    51    25    27 1   
    52    25    28 1   
@<TRIPOS>SUBSTRUCTURE
     1 KRX         1 TEMP              0 ****  ****    0 ROOT
