@<TRIPOS>MOLECULE
KRX
   50    52     1     0     0
SMALL
abcg2


@<TRIPOS>ATOM
      1 C1           8.5300     3.1850    -0.0670 c3         1 KRX       0.148900
      2 O2           7.2000     2.7050    -0.0990 os         1 KRX      -0.340100
      3 C3           6.9940     1.3780    -0.0090 ca         1 KRX       0.132100
      4 C4           8.0080     0.4330     0.1270 ca         1 KRX      -0.184000
      5 C5           7.6710    -0.9130     0.2150 ca         1 KRX      -0.081000
      6 C6           6.3530    -1.3290     0.1750 ca         1 KRX      -0.130000
      7 C7           5.3330    -0.3830     0.0400 cp         1 KRX      -0.121500
      8 C8           5.6630     0.9640    -0.0580 ca         1 KRX      -0.102000
      9 C9           3.9120    -0.7900    -0.0110 cp         1 KRX       0.429500
     10 C10          3.4770    -2.0110     0.5080 ca         1 KRX      -0.162000
     11 C11          2.1390    -2.3400     0.4220 ca         1 KRX      -0.023000
     12 C12          1.2480    -1.4390    -0.1500 ca         1 KRX      -0.211600
     13 C13          1.7760    -0.2460    -0.6340 ca         1 KRX       0.368900
     14 N14          3.0590     0.0670    -0.5700 nb         1 KRX      -0.677000
     15 C15         -0.1940    -1.8060    -0.2680 c          1 KRX       0.619700
     16 O16         -0.5340    -2.9810    -0.3170 o          1 KRX      -0.601100
     17 N17         -1.0590    -0.7810    -0.3250 ns         1 KRX      -0.497900
     18 C18         -2.4940    -0.9520    -0.4410 c6         1 KRX       0.110700
     19 C19         -3.1040     0.2450    -1.1580 c6         1 KRX      -0.093400
     20 C20         -4.6150     0.1050    -1.2360 c6         1 KRX       0.184300
     21 N21         -5.1930    -0.0630     0.0840 n3         1 KRX      -0.744600
     22 C22         -4.6720    -1.2300     0.7710 c6         1 KRX       0.184300
     23 C23         -3.1620    -1.1400     0.9180 c6         1 KRX      -0.093400
     24 C24         -6.6330     0.0330     0.0990 c3         1 KRX       0.114800
     25 C25         -7.0570     1.3140     0.7780 c3         1 KRX       0.295000
     26 F26         -6.5740     2.4010     0.1600 f          1 KRX      -0.117000
     27 F27         -8.3930     1.4430     0.8070 f          1 KRX      -0.117000
     28 F28         -6.6310     1.3740     2.0470 f          1 KRX      -0.117000
     29 H11C         8.4710     4.2680    -0.1400 h1         1 KRX       0.040700
     30 H12C         9.0370     2.9210     0.8640 h1         1 KRX       0.040700
     31 H13C         9.1190     2.8080    -0.9080 h1         1 KRX       0.040700
     32 H4           9.0500     0.7180     0.1630 ha         1 KRX       0.118000
     33 H8           4.8820     1.7050    -0.1650 ha         1 KRX       0.147000
     34 H5           8.4610    -1.6470     0.3100 ha         1 KRX       0.113000
     35 H6           6.1300    -2.3860     0.2270 ha         1 KRX       0.115000
     36 H10          4.1660    -2.6940     0.9840 ha         1 KRX       0.131000
     37 H11          1.7870    -3.2860     0.8130 ha         1 KRX       0.140000
     38 H13          1.1410     0.4860    -1.1230 h4         1 KRX       0.019100
     39 H17         -0.7300     0.1450    -0.0990 hn         1 KRX       0.315500
     40 H18         -2.6690    -1.8440    -1.0470 h1         1 KRX       0.076700
     41 H191        -2.8520     1.1680    -0.6250 hc         1 KRX       0.058450
     42 H192        -2.6980     0.3290    -2.1680 hc         1 KRX       0.058450
     43 H231        -2.7890    -2.0460     1.3990 hc         1 KRX       0.058450
     44 H232        -2.9110    -0.2950     1.5660 hc         1 KRX       0.058450
     45 H201        -5.0350     0.9990    -1.7000 h1         1 KRX       0.038700
     46 H202        -4.8660    -0.7410    -1.8990 h1         1 KRX       0.038700
     47 H221        -5.1250    -1.2890     1.7620 h1         1 KRX       0.038700
     48 H222        -4.9360    -2.1640     0.2470 h1         1 KRX       0.038700
     49 H241        -7.0640     0.0140    -0.9080 h1         1 KRX       0.069700
     50 H242        -7.0880    -0.8010     0.6400 h1         1 KRX       0.069700
@<TRIPOS>BOND
     1     1     2 1   
     2     1    29 1   
     3     1    30 1   
     4     1    31 1   
     5     2     3 1   
     6     3     4 ar  
     7     3     8 ar  
     8     4     5 ar  
     9     4    32 1   
    10     5     6 ar  
    11     5    34 1   
    12     6     7 ar  
    13     6    35 1   
    14     7     8 ar  
    15     7     9 1   
    16     8    33 1   
    17     9    10 ar  
    18     9    14 ar  
    19    10    11 ar  
    20    10    36 1   
    21    11    12 ar  
    22    11    37 1   
    23    12    13 ar  
    24    12    15 1   
    25    13    14 ar  
    26    13    38 1   
    27    15    16 2   
    28    15    17 1   
    29    17    18 1   
    30    17    39 1   
    31    18    19 1   
    32    18    23 1   
    33    18    40 1   
    34    19    20 1   
    35    19    41 1   
    36    19    42 1   
    37    20    21 1   
    38    20    45 1   
    39    20    46 1   
    40    21    22 1   
    41    21    24 1   
    42    22    23 1   
    43    22    47 1   
    44    22    48 1   
    45    23    43 1   
    46    23    44 1   
    47    24    25 1   
    48    24    49 1   
    49    24    50 1   
    50    25    26 1   
    51    25    27 1   
    52    25    28 1   
@<TRIPOS>SUBSTRUCTURE
     1 KRX         1 TEMP              0 ****  ****    0 ROOT
