@<TRIPOS>MOLECULE
KRY
   35    37     1     0     0
SMALL
bcc


@<TRIPOS>ATOM
      1 FAW          3.3660    -0.5950     1.8690 f          1 KRY      -0.116900
      2 CAR          4.1050    -0.4420     0.7740 ca         1 KRY       0.185900
      3 CAS          5.3840    -0.9590     0.7500 ca         1 KRY      -0.215000
      4 CAT          6.1390    -0.7510    -0.3890 ca         1 KRY       0.172900
      5 FAX          7.3850    -1.2260    -0.4220 f          1 KRY      -0.129900
      6 CAU          5.6530    -0.0660    -1.4860 ca         1 KRY      -0.184000
      7 CAV          4.3580     0.4220    -1.4350 ca         1 KRY      -0.075000
      8 CAQ          3.5710     0.2500    -0.3050 ca         1 KRY      -0.008400
      9 NAN          2.2710     0.7730    -0.2370 n          1 KRY      -0.285200
     10 CAO          1.1410    -0.0110    -0.1150 c          1 KRY       0.799500
     11 OAP          1.0930    -1.2170    -0.0590 o          1 KRY      -0.608500
     12 CAM          1.9270     2.1160    -0.2980 cc         1 KRY      -0.091400
     13 CAL          0.5950     2.1970    -0.2200 cd         1 KRY      -0.110400
     14 NAK          0.0940     0.9020    -0.0990 n          1 KRY      -0.282200
     15 CAF         -1.2650     0.5670    -0.0660 ca         1 KRY       0.129600
     16 CAE         -2.1830     1.3830    -0.7290 ca         1 KRY      -0.170000
     17 CAD         -3.5330     1.0990    -0.6800 ca         1 KRY      -0.007000
     18 CAC         -3.9700    -0.0190     0.0170 ca         1 KRY      -0.289500
     19 SAG         -5.7030    -0.3660     0.0980 sy         1 KRY       1.282200
     20 OAH         -5.8820    -1.4590     1.0340 o          1 KRY      -0.619300
     21 OAI         -6.4340     0.8750     0.2520 o          1 KRY      -0.619300
     22 NAJ         -6.0070    -0.8600    -1.4660 n8         1 KRY      -0.893700
     23 CAB         -3.0670    -0.8400     0.6700 ca         1 KRY      -0.007000
     24 CAA         -1.7130    -0.5490     0.6330 ca         1 KRY      -0.170000
     25 H1           5.7840    -1.4910     1.6020 ha         1 KRY       0.174000
     26 H2           6.2720     0.0770    -2.3600 ha         1 KRY       0.160000
     27 H3           3.9460     0.9460    -2.2870 ha         1 KRY       0.149000
     28 H4           2.6680     2.8930    -0.3500 h4         1 KRY       0.183000
     29 H5          -0.0370     3.0650    -0.1740 h4         1 KRY       0.185000
     30 H6          -1.8470     2.2370    -1.3000 ha         1 KRY       0.154000
     31 H7          -4.2360     1.7400    -1.1940 ha         1 KRY       0.157500
     32 H8          -5.8090    -1.8420    -1.6120 hn         1 KRY       0.417300
     33 H9          -6.9580    -0.6380    -1.7360 hn         1 KRY       0.417300
     34 H10         -3.4110    -1.7010     1.2270 ha         1 KRY       0.157500
     35 H11         -1.0200    -1.1870     1.1580 ha         1 KRY       0.154000
@<TRIPOS>BOND
     1     1     2 1   
     2     2     3 ar  
     3     2     8 ar  
     4     3     4 ar  
     5     3    25 1   
     6     4     5 1   
     7     4     6 ar  
     8     6     7 ar  
     9     6    26 1   
    10     7     8 ar  
    11     7    27 1   
    12     8     9 1   
    13     9    10 1   
    14     9    12 1   
    15    10    11 2   
    16    10    14 1   
    17    12    13 2   
    18    12    28 1   
    19    13    14 1   
    20    13    29 1   
    21    14    15 1   
    22    15    16 ar  
    23    15    24 ar  
    24    16    17 ar  
    25    16    30 1   
    26    17    18 ar  
    27    17    31 1   
    28    18    19 1   
    29    18    23 ar  
    30    19    20 2   
    31    19    21 2   
    32    19    22 1   
    33    22    32 1   
    34    22    33 1   
    35    23    24 ar  
    36    23    34 1   
    37    24    35 1   
@<TRIPOS>SUBSTRUCTURE
     1 KRY         1 TEMP              0 ****  ****    0 ROOT
