@<TRIPOS>MOLECULE
KRY
   35    37     1     0     0
SMALL
No Charge or Current Charge


@<TRIPOS>ATOM
      1 FAW          3.3910    -1.5560     1.3820 f          1 KRY      -0.152000
      2 CAR          4.1850    -0.9140     0.4950 ca         1 KRY       0.221000
      3 CAS          5.5360    -1.2880     0.4330 ca         1 KRY      -0.197000
      4 CAT          6.4170    -0.5850    -0.3960 ca         1 KRY       0.208000
      5 FAX          7.7180    -0.9420    -0.4520 f          1 KRY      -0.165000
      6 CAU          5.9590     0.5060    -1.1450 ca         1 KRY      -0.166000
      7 CAV          4.6060     0.8850    -1.0830 ca         1 KRY      -0.057000
      8 CAQ          3.6840     0.1460    -0.3050 ca         1 KRY      -0.008400
      9 NAN          2.3210     0.6140    -0.1820 n          1 KRY      -0.218200
     10 CAO          1.1600    -0.1890    -0.1670 c          1 KRY       0.590000
     11 OAP          1.0760    -1.4100    -0.1540 o          1 KRY      -0.533000
     12 CAM          1.9450     1.9580    -0.2980 cc         1 KRY      -0.141400
     13 CAL          0.5710     2.0280    -0.3210 cd         1 KRY      -0.160400
     14 NAK          0.1100     0.7240    -0.2520 n          1 KRY      -0.215200
     15 CAF         -1.3100     0.5300    -0.1860 ca         1 KRY       0.129600
     16 CAE         -2.1800     1.2440    -1.0350 ca         1 KRY      -0.152000
     17 CAD         -3.5690     1.0430    -0.9660 ca         1 KRY       0.011000
     18 CAC         -4.1020     0.1210    -0.0430 ca         1 KRY      -0.289500
     19 SAG         -5.8740    -0.1390     0.0490 sy         1 KRY       1.140600
     20 OAH         -6.2500    -0.7390     1.3270 o          1 KRY      -0.548500
     21 OAI         -6.6000     0.9910    -0.5270 o          1 KRY      -0.548500
     22 NAJ         -6.1240    -1.3400    -1.0250 n8         1 KRY      -1.004100
     23 CAB         -3.2360    -0.6030     0.8010 ca         1 KRY       0.011000
     24 CAA         -1.8480    -0.3970     0.7250 ca         1 KRY      -0.152000
     25 H1           5.9030    -2.1070     1.0440 ha         1 KRY       0.156000
     26 H2           6.6540     1.0620    -1.7700 ha         1 KRY       0.142000
     27 H3           4.2720     1.7340    -1.6740 ha         1 KRY       0.131000
     28 H4           2.7120     2.7270    -0.3200 h4         1 KRY       0.233000
     29 H5          -0.1120     2.8740    -0.3610 h4         1 KRY       0.235000
     30 H6          -1.7820     1.9460    -1.7630 ha         1 KRY       0.136000
     31 H7          -4.2250     1.6010    -1.6330 ha         1 KRY       0.139500
     32 H8          -6.6420    -1.9950    -0.4450 hn         1 KRY       0.472500
     33 H9          -6.8620    -0.9260    -1.5900 hn         1 KRY       0.472500
     34 H10         -3.6320    -1.3240     1.5150 ha         1 KRY       0.139500
     35 H11         -1.1900    -0.9570     1.3840 ha         1 KRY       0.136000
@<TRIPOS>BOND
     1     1     2 1   
     2     2     3 ar  
     3     2     8 ar  
     4     3     4 ar  
     5     3    25 1   
     6     4     5 1   
     7     4     6 ar  
     8     6     7 ar  
     9     6    26 1   
    10     7     8 ar  
    11     7    27 1   
    12     8     9 1   
    13     9    10 1   
    14     9    12 1   
    15    10    11 2   
    16    10    14 1   
    17    12    13 2   
    18    12    28 1   
    19    13    14 1   
    20    13    29 1   
    21    14    15 1   
    22    15    16 ar  
    23    15    24 ar  
    24    16    17 ar  
    25    16    30 1   
    26    17    18 ar  
    27    17    31 1   
    28    18    19 1   
    29    18    23 ar  
    30    19    20 2   
    31    19    21 2   
    32    19    22 1   
    33    22    32 1   
    34    22    33 1   
    35    23    24 ar  
    36    23    34 1   
    37    24    35 1   
@<TRIPOS>SUBSTRUCTURE
     1 KRY         1 TEMP              0 ****  ****    0 ROOT
