@<TRIPOS>MOLECULE
KRZ
   56    56     1     0     0
SMALL
No Charge or Current Charge


@<TRIPOS>ATOM
      1 O1          26.6180    49.2040    45.9880 o          1 KRZ      -0.673100
      2 C1          25.4040    49.0480    46.0200 c          1 KRZ       0.601700
      3 N1          24.6350    49.1560    44.8790 ns         1 KRZ      -0.489900
      4 C2          25.1700    49.3620    43.5240 c3         1 KRZ       0.105000
      5 C3          24.7560    48.2320    42.5610 c3         1 KRZ      -0.190400
      6 C4          23.2440    48.2530    42.3720 c          1 KRZ       0.591100
      7 O2          22.6870    49.0130    41.5930 o          1 KRZ      -0.583100
      8 N2          22.5550    47.3780    43.1810 ns         1 KRZ      -0.455900
      9 C5          21.1170    47.5270    43.4990 c3         1 KRZ      -0.043300
     10 C6          20.6270    46.3210    44.3430 c3         1 KRZ      -0.100400
     11 C7          19.1340    46.3740    44.7410 c3         1 KRZ       0.127000
     12 N3          18.2420    46.5060    43.5900 ns         1 KRZ      -0.514900
     13 C8          17.8740    45.4790    42.7650 c          1 KRZ       0.634100
     14 O3          18.2340    44.3230    42.9240 o          1 KRZ      -0.697100
     15 N4          17.0620    45.8930    41.7410 ns         1 KRZ      -0.456900
     16 C9          16.4680    45.0150    40.7030 c3         1 KRZ      -0.042300
     17 C10         15.2980    44.1500    41.2520 c3         1 KRZ      -0.037400
     18 C11         14.1060    44.9490    41.8420 c3         1 KRZ      -0.204400
     19 C12         13.0070    43.9860    42.3200 c          1 KRZ       0.714000
     20 O4          12.1510    43.6410    41.5190 o          1 KRZ      -0.775500
     21 O5          13.0570    43.5710    43.4670 o          1 KRZ      -0.775500
     22 C13         16.0520    45.8370    39.4360 c          1 KRZ       0.715000
     23 O6          16.1230    45.2850    38.3470 o          1 KRZ      -0.747000
     24 O7          15.7930    47.0280    39.5590 o          1 KRZ      -0.747000
     25 C14         20.8550    48.9030    44.1980 c          1 KRZ       0.719000
     26 O8          19.8380    49.5150    43.9030 o          1 KRZ      -0.743500
     27 O9          21.7320    49.3680    44.9180 o          1 KRZ      -0.743500
     28 C15         24.6860    48.6940    47.3040 ca         1 KRZ      -0.118600
     29 C16         25.2900    49.0040    48.5450 ca         1 KRZ      -0.068000
     30 C17         24.6500    48.6800    49.7550 ca         1 KRZ      -0.103000
     31 C18         23.4070    48.0320    49.7390 ca         1 KRZ       0.208000
     32 I1          22.4250    47.5290    51.6040 i          1 KRZ      -0.371000
     33 C19         22.8050    47.6980    48.5180 ca         1 KRZ      -0.103000
     34 C20         23.4410    48.0220    47.3060 ca         1 KRZ      -0.068000
     35 H1          23.6200    49.1470    45.0060 hn         1 KRZ       0.402500
     36 H2          26.2660    49.4160    43.5560 h1         1 KRZ       0.050700
     37 H3          24.8020    50.3250    43.1450 h1         1 KRZ       0.050700
     38 H4          25.2470    48.4030    41.5960 hc         1 KRZ       0.049200
     39 H5          25.0810    47.2790    42.9950 hc         1 KRZ       0.049200
     40 H6          23.1130    46.7680    43.7660 hn         1 KRZ       0.271500
     41 H7          20.5570    47.5510    42.5560 h1         1 KRZ       0.126700
     42 H8          20.8110    45.3970    43.7810 hc         1 KRZ       0.024200
     43 H9          21.2250    46.2540    45.2590 hc         1 KRZ       0.024200
     44 H10         18.8710    45.4640    45.2950 h1         1 KRZ       0.026700
     45 H11         18.9640    47.2280    45.4090 h1         1 KRZ       0.026700
     46 H12         17.8900    47.4280    43.3670 hn         1 KRZ       0.336500
     47 H13         16.8400    46.8790    41.6940 hn         1 KRZ       0.298500
     48 H14         17.2580    44.3280    40.3740 h1         1 KRZ       0.035700
     49 H15         15.6880    43.4750    42.0240 hc         1 KRZ       0.024700
     50 H16         14.9310    43.5070    40.4420 hc         1 KRZ       0.024700
     51 H17         13.7260    45.5780    41.0280 hc         1 KRZ       0.034200
     52 H18         14.5050    45.5160    42.6910 hc         1 KRZ       0.034200
     53 H22         26.2550    49.5080    48.5720 ha         1 KRZ       0.151500
     54 H23         25.1180    48.9300    50.7030 ha         1 KRZ       0.122000
     55 H24         21.8500    47.1810    48.5110 ha         1 KRZ       0.122000
     56 H25         22.9700    47.7160    46.3760 ha         1 KRZ       0.151500
@<TRIPOS>BOND
     1     1     2 2   
     2     2     3 1   
     3     2    28 1   
     4     3     4 1   
     5     3    35 1   
     6     4     5 1   
     7     4    36 1   
     8     4    37 1   
     9     5     6 1   
    10     5    38 1   
    11     5    39 1   
    12     6     7 2   
    13     6     8 1   
    14     8     9 1   
    15     8    40 1   
    16     9    10 1   
    17     9    25 1   
    18     9    41 1   
    19    10    11 1   
    20    10    42 1   
    21    10    43 1   
    22    11    12 1   
    23    11    44 1   
    24    11    45 1   
    25    12    13 1   
    26    12    46 1   
    27    13    14 2   
    28    13    15 1   
    29    15    16 1   
    30    15    47 1   
    31    16    17 1   
    32    16    22 1   
    33    16    48 1   
    34    17    18 1   
    35    17    49 1   
    36    17    50 1   
    37    18    19 1   
    38    18    51 1   
    39    18    52 1   
    40    19    20 1   
    41    19    21 1   
    42    22    23 1   
    43    22    24 1   
    44    25    26 1   
    45    25    27 1   
    46    28    29 ar  
    47    28    34 ar  
    48    29    30 ar  
    49    29    53 1   
    50    30    31 ar  
    51    30    54 1   
    52    31    32 1   
    53    31    33 ar  
    54    33    34 ar  
    55    33    55 1   
    56    34    56 1   
@<TRIPOS>SUBSTRUCTURE
     1 KRZ         1 TEMP              0 ****  ****    0 ROOT
