@<TRIPOS>MOLECULE
KRZ
   56    56     1     0     0
SMALL
abcg2


@<TRIPOS>ATOM
      1 O1          25.9300    49.5100    44.9930 o          1 KRZ      -0.673100
      2 C1          24.7940    49.2940    45.4000 c          1 KRZ       0.601700
      3 N1          23.6860    49.6340    44.7250 ns         1 KRZ      -0.489900
      4 C2          23.7270    50.1720    43.3860 c3         1 KRZ       0.105000
      5 C3          23.4180    49.1170    42.3130 c3         1 KRZ      -0.190400
      6 C4          21.9950    48.6350    42.4800 c          1 KRZ       0.591100
      7 O2          21.0510    49.2250    41.9720 o          1 KRZ      -0.583100
      8 N2          21.8370    47.5640    43.2800 ns         1 KRZ      -0.455900
      9 C5          20.5580    47.2660    43.8880 c3         1 KRZ      -0.043300
     10 C6          20.6930    45.9470    44.6640 c3         1 KRZ      -0.100400
     11 C7          19.4760    45.5590    45.5050 c3         1 KRZ       0.127000
     12 N3          18.2200    45.6340    44.7980 ns         1 KRZ      -0.514900
     13 C8          17.8630    44.6720    43.8970 c          1 KRZ       0.634100
     14 O3          18.3750    43.5570    43.8840 o          1 KRZ      -0.697100
     15 N4          16.8330    45.0160    43.0720 ns         1 KRZ      -0.456900
     16 C9          16.6260    44.2690    41.8500 c3         1 KRZ      -0.042300
     17 C10         15.3190    44.7100    41.1790 c3         1 KRZ      -0.037400
     18 C11         15.2980    46.1500    40.6830 c3         1 KRZ      -0.204400
     19 C12         13.9930    46.5980    39.9890 c          1 KRZ       0.714000
     20 O4          13.2110    45.7120    39.5900 o          1 KRZ      -0.775500
     21 O5          13.8450    47.8310    39.8610 o          1 KRZ      -0.775500
     22 C13         17.8140    44.3640    40.8570 c          1 KRZ       0.715000
     23 O6          17.8050    43.5130    39.9450 o          1 KRZ      -0.747000
     24 O7          18.6490    45.2750    41.0270 o          1 KRZ      -0.747000
     25 C14         20.0580    48.4320    44.7820 c          1 KRZ       0.719000
     26 O8          18.8260    48.5020    44.9500 o          1 KRZ      -0.743500
     27 O9          20.9100    49.2000    45.2820 o          1 KRZ      -0.743500
     28 C15         24.5900    48.6270    46.7280 ca         1 KRZ      -0.118600
     29 C16         25.6190    48.6970    47.6640 ca         1 KRZ      -0.068000
     30 C17         25.5060    48.0760    48.8980 ca         1 KRZ      -0.103000
     31 C18         24.3540    47.3570    49.1900 ca         1 KRZ       0.208000
     32 I1          24.1770    46.3910    51.0470 i          1 KRZ      -0.371000
     33 C19         23.3220    47.2610    48.2690 ca         1 KRZ      -0.103000
     34 C20         23.4450    47.9030    47.0450 ca         1 KRZ      -0.068000
     35 H1          22.7510    49.4360    45.0900 hn         1 KRZ       0.402500
     36 H2          24.7090    50.6010    43.1990 h1         1 KRZ       0.050700
     37 H3          23.0030    50.9860    43.3150 h1         1 KRZ       0.050700
     38 H4          23.5280    49.5730    41.3290 hc         1 KRZ       0.049200
     39 H5          24.1390    48.3000    42.3890 hc         1 KRZ       0.049200
     40 H6          22.6610    47.2030    43.7360 hn         1 KRZ       0.271500
     41 H7          19.8230    47.1120    43.0950 h1         1 KRZ       0.126700
     42 H8          20.9030    45.1540    43.9420 hc         1 KRZ       0.024200
     43 H9          21.5580    45.9960    45.3330 hc         1 KRZ       0.024200
     44 H10         19.6190    44.5490    45.8870 h1         1 KRZ       0.026700
     45 H11         19.4040    46.2080    46.3780 h1         1 KRZ       0.026700
     46 H12         17.9420    46.5910    44.6150 hn         1 KRZ       0.336500
     47 H13         16.6340    46.0030    43.0090 hn         1 KRZ       0.298500
     48 H14         16.5030    43.2170    42.1200 h1         1 KRZ       0.035700
     49 H15         14.4980    44.5520    41.8850 hc         1 KRZ       0.024700
     50 H16         15.1340    44.0340    40.3440 hc         1 KRZ       0.024700
     51 H17         16.1150    46.3100    39.9690 hc         1 KRZ       0.034200
     52 H18         15.4950    46.8530    41.4990 hc         1 KRZ       0.034200
     53 H22         26.5220    49.2450    47.4340 ha         1 KRZ       0.151500
     54 H23         26.3140    48.1540    49.6120 ha         1 KRZ       0.122000
     55 H24         22.4270    46.6950    48.4850 ha         1 KRZ       0.122000
     56 H25         22.6270    47.8140    46.3430 ha         1 KRZ       0.151500
@<TRIPOS>BOND
     1     1     2 2   
     2     2     3 1   
     3     2    28 1   
     4     3     4 1   
     5     3    35 1   
     6     4     5 1   
     7     4    36 1   
     8     4    37 1   
     9     5     6 1   
    10     5    38 1   
    11     5    39 1   
    12     6     7 2   
    13     6     8 1   
    14     8     9 1   
    15     8    40 1   
    16     9    10 1   
    17     9    25 1   
    18     9    41 1   
    19    10    11 1   
    20    10    42 1   
    21    10    43 1   
    22    11    12 1   
    23    11    44 1   
    24    11    45 1   
    25    12    13 1   
    26    12    46 1   
    27    13    14 2   
    28    13    15 1   
    29    15    16 1   
    30    15    47 1   
    31    16    17 1   
    32    16    22 1   
    33    16    48 1   
    34    17    18 1   
    35    17    49 1   
    36    17    50 1   
    37    18    19 1   
    38    18    51 1   
    39    18    52 1   
    40    19    20 1   
    41    19    21 1   
    42    22    23 1   
    43    22    24 1   
    44    25    26 1   
    45    25    27 1   
    46    28    29 ar  
    47    28    34 ar  
    48    29    30 ar  
    49    29    53 1   
    50    30    31 ar  
    51    30    54 1   
    52    31    32 1   
    53    31    33 ar  
    54    33    34 ar  
    55    33    55 1   
    56    34    56 1   
@<TRIPOS>SUBSTRUCTURE
     1 KRZ         1 TEMP              0 ****  ****    0 ROOT
