@<TRIPOS>MOLECULE
KS0
   37    38     1     0     0
SMALL
abcg2


@<TRIPOS>ATOM
      1 C10          7.5870     3.0730    23.5540 ca         1 KS0      -0.076500
      2 C13          7.8340     5.4630    22.1490 ca         1 KS0      -0.147000
      3 C17          5.3240     1.2060    19.0090 c6         1 KS0       0.099000
      4 C01          7.5510    -2.6670    18.2130 c3         1 KS0      -0.086100
      5 C02          8.1800    -1.2810    18.4070 c3         1 KS0      -0.154400
      6 N04          6.3290     0.1610    19.1830 n          1 KS0      -0.415800
      7 C05          6.2950    -0.4420    20.5120 c6         1 KS0       0.099000
      8 C06          6.4320     0.6350    21.5810 c6         1 KS0       0.148300
      9 N07          5.3950     1.6460    21.4160 n3         1 KS0      -0.728600
     10 C08          5.3230     2.6110    22.5200 c3         1 KS0       0.222100
     11 C09          6.5490     3.4800    22.7140 ca         1 KS0      -0.140300
     12 C11          8.7430     3.8330    23.6960 ca         1 KS0      -0.147000
     13 C12          6.6870     4.6860    22.0240 ca         1 KS0      -0.076500
     14 C14          8.8410     5.0130    22.9820 ca         1 KS0       0.169000
     15 F15          9.9690     5.7630    23.1070 f          1 KS0      -0.183000
     16 C16          5.4730     2.2620    20.0960 c6         1 KS0       0.148300
     17 O18          7.1140     0.3830    17.0700 o          1 KS0      -0.617100
     18 H1           7.4930     2.1480    24.1090 ha         1 KS0       0.115500
     19 H2           7.9460     6.3990    21.6180 ha         1 KS0       0.134000
     20 H3           5.4500     1.6480    18.0260 h1         1 KS0       0.061200
     21 H4           4.3300     0.7510    19.0700 h1         1 KS0       0.061200
     22 H5           8.3140    -3.4420    18.2910 hc         1 KS0       0.040700
     23 H6           6.7840    -2.8700    18.9610 hc         1 KS0       0.040700
     24 H7           7.0890    -2.7420    17.2260 hc         1 KS0       0.040700
     25 H8           8.6410    -1.2080    19.3920 hc         1 KS0       0.063200
     26 H9           8.9650    -1.1280    17.6680 hc         1 KS0       0.063200
     27 H10          5.3370    -0.9570    20.6360 h1         1 KS0       0.061200
     28 H11          7.0880    -1.1720    20.6230 h1         1 KS0       0.061200
     29 H12          6.3270     0.1770    22.5660 h1         1 KS0       0.042450
     30 H13          7.4440     1.0670    21.5170 h1         1 KS0       0.042450
     31 H15          4.4540     3.2450    22.3370 h1         1 KS0       0.060200
     32 H16          5.1360     2.0420    23.4330 h1         1 KS0       0.060200
     33 H17          9.5500     3.5230    24.3460 ha         1 KS0       0.134000
     34 H18          5.8860     5.0290    21.3810 ha         1 KS0       0.115500
     35 H19          6.4270     2.7910    19.9440 h1         1 KS0       0.042450
     36 H20          4.6680     2.9940    20.0010 h1         1 KS0       0.042450
     37 C03          7.1710    -0.1700    18.1770 c          1 KS0       0.602100
@<TRIPOS>BOND
     1     1    11 ar  
     2     1    12 ar  
     3     1    18 1   
     4     2    13 ar  
     5     2    14 ar  
     6     2    19 1   
     7     3     6 1   
     8     3    16 1   
     9     3    20 1   
    10     3    21 1   
    11     4     5 1   
    12     4    22 1   
    13     4    23 1   
    14     4    24 1   
    15     5    25 1   
    16     5    26 1   
    17     5    37 1   
    18     6     7 1   
    19     6    37 1   
    20     7     8 1   
    21     7    27 1   
    22     7    28 1   
    23     8     9 1   
    24     8    29 1   
    25     8    30 1   
    26     9    10 1   
    27     9    16 1   
    28    10    11 1   
    29    10    31 1   
    30    10    32 1   
    31    11    13 ar  
    32    12    14 ar  
    33    12    33 1   
    34    13    34 1   
    35    14    15 1   
    36    16    35 1   
    37    16    36 1   
    38    17    37 2   
@<TRIPOS>SUBSTRUCTURE
     1 KS0         1 TEMP              0 ****  ****    0 ROOT
