@<TRIPOS>MOLECULE
KS0
   37    38     1     0     0
SMALL
No Charge or Current Charge


@<TRIPOS>ATOM
      1 C10          7.5210     3.1360    23.6880 ca         1 KS0      -0.076500
      2 C13          7.6240     5.6680    22.4700 ca         1 KS0      -0.147000
      3 C17          5.6860     1.4050    18.8730 c6         1 KS0       0.099000
      4 C01          7.3400    -3.0170    18.2650 c3         1 KS0      -0.086100
      5 C02          7.9920    -1.6440    17.9830 c3         1 KS0      -0.154400
      6 N04          6.6510     0.2690    19.0140 n          1 KS0      -0.415800
      7 C05          6.7000    -0.3150    20.3950 c6         1 KS0       0.099000
      8 C06          6.6290     0.7260    21.5460 c6         1 KS0       0.148300
      9 N07          5.5080     1.6840    21.3720 n3         1 KS0      -0.728600
     10 C08          5.3130     2.5950    22.5300 c3         1 KS0       0.222100
     11 C09          6.4900     3.5310    22.8090 ca         1 KS0      -0.140300
     12 C11          8.5990     4.0000    23.9490 ca         1 KS0      -0.147000
     13 C12          6.5440     4.8060    22.2070 ca         1 KS0      -0.076500
     14 C14          8.6480     5.2610    23.3380 ca         1 KS0       0.169000
     15 F15          9.6850     6.0900    23.5890 f          1 KS0      -0.183000
     16 C16          5.6540     2.3900    20.0730 c6         1 KS0       0.148300
     17 O18          6.4080    -0.2880    16.8000 o          1 KS0      -0.617100
     18 H1           7.4870     2.1590    24.1660 ha         1 KS0       0.115500
     19 H2           7.6670     6.6480    22.0030 ha         1 KS0       0.134000
     20 H3           5.9220     1.9770    17.9650 h1         1 KS0       0.061200
     21 H4           4.6780     0.9870    18.7390 h1         1 KS0       0.061200
     22 H5           8.1060    -3.8000    18.3220 hc         1 KS0       0.040700
     23 H6           6.7920    -3.0060    19.2140 hc         1 KS0       0.040700
     24 H7           6.6380    -3.2830    17.4650 hc         1 KS0       0.040700
     25 H8           8.6960    -1.4360    18.7950 hc         1 KS0       0.063200
     26 H9           8.5360    -1.7120    17.0340 hc         1 KS0       0.063200
     27 H10          5.8540    -1.0080    20.5040 h1         1 KS0       0.061200
     28 H11          7.6150    -0.9030    20.5390 h1         1 KS0       0.061200
     29 H12          6.5300     0.1870    22.5000 h1         1 KS0       0.042450
     30 H13          7.5870     1.2660    21.5800 h1         1 KS0       0.042450
     31 H15          4.4140     3.2060    22.3700 h1         1 KS0       0.060200
     32 H16          5.1180     2.0030    23.4350 h1         1 KS0       0.060200
     33 H17          9.3950     3.6930    24.6230 ha         1 KS0       0.134000
     34 H18          5.7510     5.1270    21.5350 ha         1 KS0       0.115500
     35 H19          6.5840     2.9760    20.0620 h1         1 KS0       0.042450
     36 H20          4.8250     3.0970    19.9240 h1         1 KS0       0.042450
     37 C03          6.9410    -0.5230    17.8780 c          1 KS0       0.602100
@<TRIPOS>BOND
     1     1    11 ar  
     2     1    12 ar  
     3     1    18 1   
     4     2    13 ar  
     5     2    14 ar  
     6     2    19 1   
     7     3     6 1   
     8     3    16 1   
     9     3    20 1   
    10     3    21 1   
    11     4     5 1   
    12     4    22 1   
    13     4    23 1   
    14     4    24 1   
    15     5    25 1   
    16     5    26 1   
    17     5    37 1   
    18     6     7 1   
    19     6    37 1   
    20     7     8 1   
    21     7    27 1   
    22     7    28 1   
    23     8     9 1   
    24     8    29 1   
    25     8    30 1   
    26     9    10 1   
    27     9    16 1   
    28    10    11 1   
    29    10    31 1   
    30    10    32 1   
    31    11    13 ar  
    32    12    14 ar  
    33    12    33 1   
    34    13    34 1   
    35    14    15 1   
    36    16    35 1   
    37    16    36 1   
    38    17    37 2   
@<TRIPOS>SUBSTRUCTURE
     1 KS0         1 TEMP              0 ****  ****    0 ROOT
