@<TRIPOS>MOLECULE
KS1
   41    45     1     0     0
SMALL
abcg2


@<TRIPOS>ATOM
      1 CAI         -3.6420    -1.5010     1.3960 c5         1 KS1      -0.090900
      2 CAG         -4.5600    -2.6740     0.9910 c5         1 KS1      -0.079400
      3 CAH         -4.9450    -2.4130    -0.4740 c5         1 KS1      -0.079400
      4 CAJ         -3.7640    -1.6280    -1.0290 c5         1 KS1      -0.090900
      5 CAW         -3.4610    -0.6650     0.1160 c5         1 KS1       0.098300
      6 NAX         -2.1720    -0.0150     0.0200 na         1 KS1      -0.009100
      7 NAN         -1.0400    -0.7300    -0.0080 nc         1 KS1      -0.521100
      8 C4          -1.9180     1.3060    -0.0210 ca         1 KS1       0.159500
      9 N3          -2.8100     2.3000    -0.0010 nb         1 KS1      -0.233000
     10 C2          -2.2370     3.4830    -0.0760 ca         1 KS1       0.195900
     11 N1          -0.9430     3.7720    -0.1970 nb         1 KS1      -0.312000
     12 C6          -0.0580     2.7720    -0.2330 ca         1 KS1       0.454900
     13 NAA          1.2300     3.0850    -0.3910 nv         1 KS1      -1.065900
     14 C5          -0.5290     1.4460    -0.0980 ca         1 KS1      -0.381900
     15 CAR         -0.0350     0.1130    -0.0740 cd         1 KS1       0.441500
     16 CAP          1.3460    -0.3740    -0.1030 ca         1 KS1      -0.187900
     17 CAF          2.3300     0.1960     0.6960 ca         1 KS1      -0.024000
     18 CAS          3.6140    -0.3350     0.6320 ca         1 KS1      -0.144800
     19 CAD          4.8700    -0.0700     1.2550 cc         1 KS1      -0.231200
     20 CAB          5.7470    -0.9860     0.7510 cd         1 KS1      -0.153100
     21 NAO          5.1130    -1.8040    -0.1430 na         1 KS1      -0.323400
     22 CAT          3.8100    -1.4340    -0.2380 ca         1 KS1       0.370500
     23 NAM          2.8880    -2.0000    -1.0000 nb         1 KS1      -0.682000
     24 CAE          1.6820    -1.4670    -0.9250 ca         1 KS1       0.387900
     25 HAI         -4.0640    -0.8980     2.2000 hc         1 KS1       0.059200
     26 HAIA        -2.6750    -1.8660     1.7430 hc         1 KS1       0.059200
     27 HAG         -4.0180    -3.6170     1.0700 hc         1 KS1       0.045950
     28 HAGA        -5.4350    -2.7560     1.6350 hc         1 KS1       0.045950
     29 HAH         -5.1450    -3.3320    -1.0270 hc         1 KS1       0.045950
     30 HAHA        -5.8500    -1.8020    -0.5250 hc         1 KS1       0.045950
     31 HAJ         -2.9110    -2.2920    -1.1920 hc         1 KS1       0.059200
     32 HAJA        -3.9770    -1.1120    -1.9660 hc         1 KS1       0.059200
     33 HAW         -4.1940     0.1440     0.1000 h1         1 KS1       0.086700
     34 H2          -2.9030     4.3400    -0.0460 h5         1 KS1       0.045100
     35 HNAA         1.4790     4.0420    -0.5780 hn         1 KS1       0.501000
     36 HNAB         1.9180     2.3820    -0.6010 hn         1 KS1       0.501000
     37 HAF          2.1010     1.0150     1.3680 ha         1 KS1       0.129000
     38 HAD          5.0960     0.6990     1.9760 ha         1 KS1       0.210000
     39 HAB          6.7950    -1.1220     0.9640 h4         1 KS1       0.217000
     40 HNAO         5.5440    -2.5620    -0.6470 hn         1 KS1       0.362000
     41 HAE          0.9170    -1.9120    -1.5510 h4         1 KS1       0.033100
@<TRIPOS>BOND
     1     1     2 1   
     2     1     5 1   
     3     1    25 1   
     4     1    26 1   
     5     2     3 1   
     6     2    27 1   
     7     2    28 1   
     8     3     4 1   
     9     3    29 1   
    10     3    30 1   
    11     4     5 1   
    12     4    31 1   
    13     4    32 1   
    14     5     6 1   
    15     5    33 1   
    16     6     7 1   
    17     6     8 1   
    18     7    15 2   
    19     8     9 ar  
    20     8    14 ar  
    21     9    10 ar  
    22    10    11 ar  
    23    10    34 1   
    24    11    12 ar  
    25    12    13 1   
    26    12    14 ar  
    27    13    35 1   
    28    13    36 1   
    29    14    15 1   
    30    15    16 1   
    31    16    17 ar  
    32    16    24 ar  
    33    17    18 ar  
    34    17    37 1   
    35    18    19 1   
    36    18    22 ar  
    37    19    20 2   
    38    19    38 1   
    39    20    21 1   
    40    20    39 1   
    41    21    22 1   
    42    21    40 1   
    43    22    23 ar  
    44    23    24 ar  
    45    24    41 1   
@<TRIPOS>SUBSTRUCTURE
     1 KS1         1 TEMP              0 ****  ****    0 ROOT
