@<TRIPOS>MOLECULE
KS1
   41    45     1     0     0
SMALL
No Charge or Current Charge


@<TRIPOS>ATOM
      1 CAI         -3.6090    -1.8270     1.3290 c5         1 KS1      -0.090900
      2 CAG         -5.0120    -2.4330     1.0420 c5         1 KS1      -0.079400
      3 CAH         -5.1670    -2.3590    -0.5130 c5         1 KS1      -0.079400
      4 CAJ         -3.8520    -1.6920    -1.0110 c5         1 KS1      -0.090900
      5 CAW         -3.4690    -0.7870     0.1880 c5         1 KS1       0.098300
      6 NAX         -2.1550    -0.1320     0.0870 na         1 KS1      -0.009100
      7 NAN         -0.9760    -0.8780    -0.0490 nc         1 KS1      -0.521100
      8 C4          -1.8860     1.2310     0.0790 ca         1 KS1       0.159500
      9 N3          -2.7010     2.3030     0.1320 nb         1 KS1      -0.233000
     10 C2          -2.0930     3.5070     0.0240 ca         1 KS1       0.195900
     11 N1          -0.7690     3.7300    -0.1590 nb         1 KS1      -0.312000
     12 C6           0.0110     2.6430    -0.2100 ca         1 KS1       0.454900
     13 NAA          1.3140     2.8800    -0.4690 nv         1 KS1      -1.065900
     14 C5          -0.5350     1.3720    -0.0580 ca         1 KS1      -0.381900
     15 CAR         -0.0020     0.0340    -0.1030 cd         1 KS1       0.441500
     16 CAP          1.4080    -0.3550    -0.1580 ca         1 KS1      -0.187900
     17 CAF          2.3740     0.2340     0.6830 ca         1 KS1      -0.024000
     18 CAS          3.6740    -0.2700     0.5820 ca         1 KS1      -0.144800
     19 CAD          4.8590     0.1190     1.2840 cc         1 KS1      -0.231200
     20 CAB          5.8780    -0.7000     0.8230 cd         1 KS1      -0.153100
     21 NAO          5.3370    -1.5840    -0.1460 na         1 KS1      -0.323400
     22 CAT          3.9900    -1.3020    -0.2700 ca         1 KS1       0.370500
     23 NAM          3.0740    -1.9030    -1.0520 nb         1 KS1      -0.682000
     24 CAE          1.7990    -1.4370    -0.9780 ca         1 KS1       0.387900
     25 HAI         -3.5500    -1.3670     2.3210 hc         1 KS1       0.059200
     26 HAIA        -2.8260    -2.5930     1.2800 hc         1 KS1       0.059200
     27 HAG         -5.0940    -3.4600     1.4170 hc         1 KS1       0.045950
     28 HAGA        -5.8000    -1.8520     1.5360 hc         1 KS1       0.045950
     29 HAH         -5.3120    -3.3480    -0.9610 hc         1 KS1       0.045950
     30 HAHA        -6.0420    -1.7560    -0.7840 hc         1 KS1       0.045950
     31 HAJ         -3.0790    -2.4420    -1.2170 hc         1 KS1       0.059200
     32 HAJA        -4.0010    -1.1190    -1.9340 hc         1 KS1       0.059200
     33 HAW         -4.2300    -0.0040     0.3130 h1         1 KS1       0.086700
     34 H2          -2.7360     4.3850     0.0680 h5         1 KS1       0.045100
     35 HNAA         1.5660     3.8120    -0.7880 hn         1 KS1       0.501000
     36 HNAB         1.8890     2.1160    -0.8070 hn         1 KS1       0.501000
     37 HAF          2.1250     1.0260     1.3860 ha         1 KS1       0.129000
     38 HAD          4.9610     0.9020     2.0340 ha         1 KS1       0.210000
     39 HAB          6.9300    -0.7210     1.1070 h4         1 KS1       0.217000
     40 HNAO         5.8310    -2.3010    -0.6620 hn         1 KS1       0.362000
     41 HAE          1.0710    -1.9430    -1.6130 h4         1 KS1       0.033100
@<TRIPOS>BOND
     1     1     2 1   
     2     1     5 1   
     3     1    25 1   
     4     1    26 1   
     5     2     3 1   
     6     2    27 1   
     7     2    28 1   
     8     3     4 1   
     9     3    29 1   
    10     3    30 1   
    11     4     5 1   
    12     4    31 1   
    13     4    32 1   
    14     5     6 1   
    15     5    33 1   
    16     6     7 1   
    17     6     8 1   
    18     7    15 2   
    19     8     9 ar  
    20     8    14 ar  
    21     9    10 ar  
    22    10    11 ar  
    23    10    34 1   
    24    11    12 ar  
    25    12    13 1   
    26    12    14 ar  
    27    13    35 1   
    28    13    36 1   
    29    14    15 1   
    30    15    16 1   
    31    16    17 ar  
    32    16    24 ar  
    33    17    18 ar  
    34    17    37 1   
    35    18    19 1   
    36    18    22 ar  
    37    19    20 2   
    38    19    38 1   
    39    20    21 1   
    40    20    39 1   
    41    21    22 1   
    42    21    40 1   
    43    22    23 ar  
    44    23    24 ar  
    45    24    41 1   
@<TRIPOS>SUBSTRUCTURE
     1 KS1         1 TEMP              0 ****  ****    0 ROOT
