@<TRIPOS>MOLECULE
KS2
   42    44     1     0     0
SMALL
No Charge or Current Charge


@<TRIPOS>ATOM
      1 O3          -4.6670     1.4550    -1.7240 oh         1 KS2      -0.666000
      2 C3          -3.9350     1.0810    -0.5450 c6         1 KS2       0.099300
      3 C4          -4.0780    -0.4420    -0.2670 c6         1 KS2       0.142300
      4 O4          -5.4710    -0.7660    -0.1120 oh         1 KS2      -0.718000
      5 C2          -2.4370     1.4810    -0.6900 c6         1 KS2       0.114300
      6 O2          -2.3540     2.9100    -0.9070 oh         1 KS2      -0.721000
      7 C1          -1.6480     1.0120     0.5810 c6         1 KS2       0.154000
      8 O5          -1.8550    -0.4140     0.7810 os         1 KS2      -0.411000
      9 C5          -3.2360    -0.8100     0.9920 c6         1 KS2       0.168300
     10 C6          -3.2650    -2.3420     1.3040 c3         1 KS2       0.172600
     11 O6          -2.4290    -2.7150     2.4200 oh         1 KS2      -0.711000
     12 C14         -0.1650     1.3270     0.4440 cc         1 KS2       0.392800
     13 N5           0.8260     0.3840     0.3660 na         1 KS2      -0.483000
     14 C13          2.0100     1.0530     0.2430 cc         1 KS2       0.449000
     15 N3           1.7590     2.3510     0.2420 nd         1 KS2      -0.361000
     16 N2           0.4000     2.5220     0.3700 nd         1 KS2      -0.336000
     17 C15          3.3310     0.4190     0.1300 ca         1 KS2      -0.132500
     18 C11          3.4700    -0.9880     0.1390 ca         1 KS2      -0.080500
     19 C10          4.7390    -1.5830     0.0300 ca         1 KS2      -0.114500
     20 C9           5.8920    -0.7880    -0.0890 ca         1 KS2      -0.060300
     21 C12          7.2640    -1.4340    -0.2100 c3         1 KS2      -0.049800
     22 C8           5.7630     0.6120    -0.1010 ca         1 KS2      -0.114500
     23 C7           4.4960     1.2110     0.0070 ca         1 KS2      -0.080500
     24 H1          -4.2940     2.3310    -1.9800 ho         1 KS2       0.454000
     25 H2          -4.3410     1.6230     0.3240 h1         1 KS2       0.051700
     26 H3          -3.6610    -0.9890    -1.1270 h1         1 KS2       0.061700
     27 H4          -5.9310    -0.1940    -0.7740 ho         1 KS2       0.523000
     28 H5          -2.0190     0.9440    -1.5570 h1         1 KS2       0.081700
     29 H6          -1.3990     3.1620    -0.8940 ho         1 KS2       0.517000
     30 H7          -2.0430     1.5390     1.4620 h1         1 KS2       0.045700
     31 H8          -3.6290    -0.2730     1.8680 h1         1 KS2       0.057700
     32 H9          -4.3060    -2.6320     1.5040 h1         1 KS2       0.038700
     33 H10         -2.9470    -2.8790     0.4000 h1         1 KS2       0.038700
     34 H11         -2.4830    -3.6950     2.5060 ho         1 KS2       0.505000
     35 H12          0.6940    -0.6140     0.4040 hn         1 KS2       0.362000
     36 H13          2.5990    -1.6320     0.2300 ha         1 KS2       0.121500
     37 H14          4.8240    -2.6670     0.0370 ha         1 KS2       0.115000
     38 H15          7.5160    -1.6180    -1.2610 hc         1 KS2       0.045033
     39 H16          8.0460    -0.7960     0.2160 hc         1 KS2       0.045033
     40 H17          7.3010    -2.3950     0.3160 hc         1 KS2       0.045033
     41 H18          6.6460     1.2400    -0.1970 ha         1 KS2       0.115000
     42 H19          4.4250     2.2960    -0.0040 ha         1 KS2       0.121500
@<TRIPOS>BOND
     1     1     2 1   
     2     1    24 1   
     3     2     3 1   
     4     2     5 1   
     5     2    25 1   
     6     3     4 1   
     7     3     9 1   
     8     3    26 1   
     9     4    27 1   
    10     5     6 1   
    11     5     7 1   
    12     5    28 1   
    13     6    29 1   
    14     7     8 1   
    15     7    12 1   
    16     7    30 1   
    17     8     9 1   
    18     9    10 1   
    19     9    31 1   
    20    10    11 1   
    21    10    32 1   
    22    10    33 1   
    23    11    34 1   
    24    12    13 1   
    25    12    16 2   
    26    13    14 1   
    27    13    35 1   
    28    14    15 2   
    29    14    17 1   
    30    15    16 1   
    31    17    18 ar  
    32    17    23 ar  
    33    18    19 ar  
    34    18    36 1   
    35    19    20 ar  
    36    19    37 1   
    37    20    21 1   
    38    20    22 ar  
    39    21    38 1   
    40    21    39 1   
    41    21    40 1   
    42    22    23 ar  
    43    22    41 1   
    44    23    42 1   
@<TRIPOS>SUBSTRUCTURE
     1 KS2         1 TEMP              0 ****  ****    0 ROOT
