@<TRIPOS>MOLECULE
KS2
   42    44     1     0     0
SMALL
abcg2


@<TRIPOS>ATOM
      1 O3          -4.3340     2.4990     0.2420 oh         1 KS2      -0.666000
      2 C3          -3.5850     1.3440     0.5510 c6         1 KS2       0.099300
      3 C4          -4.3360     0.1410    -0.0070 c6         1 KS2       0.142300
      4 O4          -5.5820    -0.0230     0.6220 oh         1 KS2      -0.718000
      5 C2          -2.1790     1.4050    -0.0350 c6         1 KS2       0.114300
      6 O2          -1.3940     2.4060     0.5630 oh         1 KS2      -0.721000
      7 C1          -1.4870     0.0670     0.2260 c6         1 KS2       0.154000
      8 O5          -2.2270    -0.9810    -0.3440 os         1 KS2      -0.411000
      9 C5          -3.5150    -1.1290     0.2240 c6         1 KS2       0.168300
     10 C6          -4.1580    -2.3440    -0.4120 c3         1 KS2       0.172600
     11 O6          -3.3930    -3.4810    -0.0920 oh         1 KS2      -0.711000
     12 C14         -0.1200     0.0460    -0.3650 cc         1 KS2       0.392800
     13 N5           1.0150    -0.0170     0.3620 na         1 KS2      -0.483000
     14 C13          2.0310     0.0040    -0.5350 cc         1 KS2       0.449000
     15 N3           1.5250     0.0730    -1.7400 nd         1 KS2      -0.361000
     16 N2           0.1780     0.1020    -1.6310 nd         1 KS2      -0.336000
     17 C15          3.4490    -0.0430    -0.1980 ca         1 KS2      -0.132500
     18 C11          3.8880    -0.0030     1.1230 ca         1 KS2      -0.080500
     19 C10          5.2420    -0.0460     1.4170 ca         1 KS2      -0.114500
     20 C9           6.1960    -0.1320     0.4070 ca         1 KS2      -0.060300
     21 C12          7.6590    -0.2150     0.7270 c3         1 KS2      -0.049800
     22 C8           5.7480    -0.1660    -0.9140 ca         1 KS2      -0.114500
     23 C7           4.3990    -0.1220    -1.2170 ca         1 KS2      -0.080500
     24 H1          -4.1530     3.1760     0.9010 ho         1 KS2       0.454000
     25 H2          -3.4980     1.2170     1.6410 h1         1 KS2       0.051700
     26 H3          -4.4570     0.2810    -1.0940 h1         1 KS2       0.061700
     27 H4          -6.0720     0.8010     0.5290 ho         1 KS2       0.523000
     28 H5          -2.2480     1.5470    -1.1220 h1         1 KS2       0.081700
     29 H6          -1.6020     3.2510     0.1520 ho         1 KS2       0.517000
     30 H7          -1.3940    -0.0690     1.3160 h1         1 KS2       0.045700
     31 H8          -3.4270    -1.2950     1.3100 h1         1 KS2       0.057700
     32 H9          -5.1830    -2.4270    -0.0390 h1         1 KS2       0.038700
     33 H10         -4.2200    -2.1870    -1.4980 h1         1 KS2       0.038700
     34 H11         -3.8620    -4.2540    -0.4170 ho         1 KS2       0.505000
     35 H12          1.0780    -0.0820     1.3670 hn         1 KS2       0.362000
     36 H13          3.1850     0.0680     1.9440 ha         1 KS2       0.121500
     37 H14          5.5560    -0.0100     2.4530 ha         1 KS2       0.115000
     38 H15          7.9840    -1.2570     0.7790 hc         1 KS2       0.045033
     39 H16          8.2640     0.2730    -0.0370 hc         1 KS2       0.045033
     40 H17          7.8870     0.2440     1.6880 hc         1 KS2       0.045033
     41 H18          6.4690    -0.2270    -1.7200 ha         1 KS2       0.115000
     42 H19          4.0800    -0.1500    -2.2500 ha         1 KS2       0.121500
@<TRIPOS>BOND
     1     1     2 1   
     2     1    24 1   
     3     2     3 1   
     4     2     5 1   
     5     2    25 1   
     6     3     4 1   
     7     3     9 1   
     8     3    26 1   
     9     4    27 1   
    10     5     6 1   
    11     5     7 1   
    12     5    28 1   
    13     6    29 1   
    14     7     8 1   
    15     7    12 1   
    16     7    30 1   
    17     8     9 1   
    18     9    10 1   
    19     9    31 1   
    20    10    11 1   
    21    10    32 1   
    22    10    33 1   
    23    11    34 1   
    24    12    13 1   
    25    12    16 2   
    26    13    14 1   
    27    13    35 1   
    28    14    15 2   
    29    14    17 1   
    30    15    16 1   
    31    17    18 ar  
    32    17    23 ar  
    33    18    19 ar  
    34    18    36 1   
    35    19    20 ar  
    36    19    37 1   
    37    20    21 1   
    38    20    22 ar  
    39    21    38 1   
    40    21    39 1   
    41    21    40 1   
    42    22    23 ar  
    43    22    41 1   
    44    23    42 1   
@<TRIPOS>SUBSTRUCTURE
     1 KS2         1 TEMP              0 ****  ****    0 ROOT
