@<TRIPOS>MOLECULE
KS3
   45    48     1     0     0
SMALL
bcc


@<TRIPOS>ATOM
      1 O6           4.0150     3.4100    -0.1000 oh         1 KS3      -0.589800
      2 C6           4.3890     2.3270    -0.9180 c3         1 KS3       0.149400
      3 C5           4.1590     1.0400    -0.1540 c6         1 KS3       0.145100
      4 C4           4.6490    -0.1840    -0.9290 c6         1 KS3       0.119100
      5 O4           6.0390    -0.0680    -1.1010 oh         1 KS3      -0.595800
      6 O5           2.7680     0.9310     0.0830 os         1 KS3      -0.367600
      7 C1           2.4160    -0.1810     0.8630 c6         1 KS3       0.128800
      8 C2           2.7990    -1.4790     0.1510 c6         1 KS3       0.091100
      9 O2           2.4490    -2.5390     1.0050 oh         1 KS3      -0.597800
     10 C3           4.2900    -1.4510    -0.1590 c6         1 KS3       0.075100
     11 O3           4.6790    -2.5560    -0.9450 oh         1 KS3      -0.602800
     12 C18          0.9430    -0.1200     1.0780 cc         1 KS3       0.435800
     13 N2           0.3430    -0.0920     2.2690 na         1 KS3      -0.122400
     14 N3          -0.9790    -0.0450     2.1300 nc         1 KS3      -0.526800
     15 C17         -1.1350    -0.0420     0.8220 cd         1 KS3       0.589500
     16 N5           0.0290    -0.0890     0.1360 nd         1 KS3      -0.683000
     17 C16         -2.4430     0.0110     0.1680 ca         1 KS3      -0.116500
     18 C7          -3.6050     0.0440     0.8990 ca         1 KS3      -0.085000
     19 C8          -4.8640     0.0950     0.2630 ca         1 KS3      -0.045000
     20 C12         -6.0710     0.1300     1.0030 ca         1 KS3      -0.110000
     21 C13         -7.2790     0.1790     0.3630 ca         1 KS3      -0.131000
     22 C14         -7.3390     0.1970    -1.0480 ca         1 KS3      -0.122000
     23 C15         -6.1890     0.1640    -1.7880 ca         1 KS3      -0.120000
     24 C9          -4.9260     0.1130    -1.1540 ca         1 KS3      -0.027000
     25 C10         -3.7160     0.0780    -1.8860 ca         1 KS3      -0.131000
     26 C11         -2.5100     0.0280    -1.2470 ca         1 KS3      -0.092000
     27 H1           4.1880     4.2210    -0.5860 ho         1 KS3       0.407000
     28 H2           3.8050     2.2950    -1.8480 h1         1 KS3       0.039700
     29 H3           5.4460     2.3780    -1.2010 h1         1 KS3       0.039700
     30 H4           4.7010     1.0880     0.8040 h1         1 KS3       0.059700
     31 H5           4.1300    -0.2070    -1.9010 h1         1 KS3       0.061700
     32 H6           6.3560    -0.8810    -1.5100 ho         1 KS3       0.425000
     33 H7           2.9250    -0.1520     1.8400 h1         1 KS3       0.051700
     34 H8           2.2390    -1.5250    -0.7930 h1         1 KS3       0.080700
     35 H9           2.3510    -3.3400     0.4820 ho         1 KS3       0.419000
     36 H10          4.8450    -1.4380     0.7910 h1         1 KS3       0.052700
     37 H11          4.8780    -3.2960    -0.3650 ho         1 KS3       0.415000
     38 H12          0.7630    -0.1030     3.1880 hn         1 KS3       0.330700
     39 H13         -3.5700     0.0320     1.9820 ha         1 KS3       0.146000
     40 H14         -6.0240     0.1170     2.0850 ha         1 KS3       0.132000
     41 H15         -8.1960     0.2060     0.9370 ha         1 KS3       0.130000
     42 H16         -8.3010     0.2360    -1.5410 ha         1 KS3       0.129000
     43 H17         -6.2330     0.1770    -2.8700 ha         1 KS3       0.130000
     44 H18         -3.7560     0.0900    -2.9680 ha         1 KS3       0.132000
     45 H19         -1.5950     0.0010    -1.8230 ha         1 KS3       0.152000
@<TRIPOS>BOND
     1     1     2 1   
     2     1    27 1   
     3     2     3 1   
     4     2    28 1   
     5     2    29 1   
     6     3     4 1   
     7     3     6 1   
     8     3    30 1   
     9     4     5 1   
    10     4    10 1   
    11     4    31 1   
    12     5    32 1   
    13     6     7 1   
    14     7     8 1   
    15     7    12 1   
    16     7    33 1   
    17     8     9 1   
    18     8    10 1   
    19     8    34 1   
    20     9    35 1   
    21    10    11 1   
    22    10    36 1   
    23    11    37 1   
    24    12    13 1   
    25    12    16 2   
    26    13    14 1   
    27    13    38 1   
    28    14    15 2   
    29    15    16 1   
    30    15    17 1   
    31    17    18 ar  
    32    17    26 ar  
    33    18    19 ar  
    34    18    39 1   
    35    19    20 ar  
    36    19    24 ar  
    37    20    21 ar  
    38    20    40 1   
    39    21    22 ar  
    40    21    41 1   
    41    22    23 ar  
    42    22    42 1   
    43    23    24 ar  
    44    23    43 1   
    45    24    25 ar  
    46    25    26 ar  
    47    25    44 1   
    48    26    45 1   
@<TRIPOS>SUBSTRUCTURE
     1 KS3         1 TEMP              0 ****  ****    0 ROOT
