@<TRIPOS>MOLECULE
KS3
   45    48     1     0     0
SMALL
No Charge or Current Charge


@<TRIPOS>ATOM
      1 O6           4.9610     2.6020     2.1980 oh         1 KS3      -0.712000
      2 C6           5.4080     2.0150     0.9570 c3         1 KS3       0.172600
      3 C5           4.6470     0.7010     0.5850 c6         1 KS3       0.168300
      4 C4           5.0800     0.1320    -0.8010 c6         1 KS3       0.142300
      5 O4           6.4740    -0.2240    -0.8380 oh         1 KS3      -0.718000
      6 O5           3.2230     0.9890     0.5700 os         1 KS3      -0.414000
      7 C1           2.3720    -0.1650     0.3330 c6         1 KS3       0.152000
      8 C2           2.7060    -0.7770    -1.0680 c6         1 KS3       0.114300
      9 O2           1.9230    -1.9600    -1.3440 oh         1 KS3      -0.720000
     10 C3           4.2220    -1.1220    -1.1320 c6         1 KS3       0.098300
     11 O3           4.5590    -1.6450    -2.4280 oh         1 KS3      -0.665000
     12 C18          0.8980     0.2040     0.4200 cc         1 KS3       0.435800
     13 N2           0.4190     1.3800     0.9350 na         1 KS3      -0.172700
     14 N3          -0.9440     1.4320     0.8870 nc         1 KS3      -0.526800
     15 C17         -1.2430     0.2630     0.3350 cd         1 KS3       0.589500
     16 N5          -0.1420    -0.5190     0.0320 nd         1 KS3      -0.683000
     17 C16         -2.6340    -0.1690     0.0630 ca         1 KS3      -0.116500
     18 C7          -3.7280     0.6710     0.3780 ca         1 KS3      -0.067000
     19 C8          -5.0500     0.2600     0.1200 ca         1 KS3      -0.045000
     20 C12         -6.1310     1.1040     0.4380 ca         1 KS3      -0.092000
     21 C13         -7.4490     0.6910     0.1780 ca         1 KS3      -0.113000
     22 C14         -7.6910    -0.5670    -0.4000 ca         1 KS3      -0.104000
     23 C15         -6.6160    -1.4130    -0.7190 ca         1 KS3      -0.102000
     24 C9          -5.2940    -1.0030    -0.4600 ca         1 KS3      -0.027000
     25 C10         -4.2140    -1.8430    -0.7770 ca         1 KS3      -0.113000
     26 C11         -2.8950    -1.4310    -0.5180 ca         1 KS3      -0.074000
     27 H1           5.4690     3.4380     2.3210 ho         1 KS3       0.506000
     28 H2           5.2750     2.7300     0.1340 h1         1 KS3       0.039700
     29 H3           6.4810     1.7860     1.0170 h1         1 KS3       0.039700
     30 H4           4.8490    -0.0450     1.3680 h1         1 KS3       0.059700
     31 H5           4.8740     0.9000    -1.5630 h1         1 KS3       0.061700
     32 H6           6.5450    -0.8600    -1.5920 ho         1 KS3       0.524000
     33 H7           2.5910    -0.9130     1.1090 h1         1 KS3       0.051700
     34 H8           2.4940    -0.0050    -1.8250 h1         1 KS3       0.080700
     35 H9           0.9980    -1.7500    -1.0480 ho         1 KS3       0.518000
     36 H10          4.4230    -1.8860    -0.3650 h1         1 KS3       0.052700
     37 H11          3.7920    -2.2130    -2.6760 ho         1 KS3       0.454000
     38 H12          0.9930     2.1320     1.3080 hn         1 KS3       0.381000
     39 H13         -3.5560     1.6470     0.8260 ha         1 KS3       0.128000
     40 H14         -5.9530     2.0800     0.8860 ha         1 KS3       0.114000
     41 H15         -8.2820     1.3450     0.4250 ha         1 KS3       0.112000
     42 H16         -8.7120    -0.8860    -0.6000 ha         1 KS3       0.111000
     43 H17         -6.8100    -2.3850    -1.1660 ha         1 KS3       0.112000
     44 H18         -4.3920    -2.8190    -1.2240 ha         1 KS3       0.114000
     45 H19         -2.0770    -2.1010    -0.7720 ha         1 KS3       0.134000
@<TRIPOS>BOND
     1     1     2 1   
     2     1    27 1   
     3     2     3 1   
     4     2    28 1   
     5     2    29 1   
     6     3     4 1   
     7     3     6 1   
     8     3    30 1   
     9     4     5 1   
    10     4    10 1   
    11     4    31 1   
    12     5    32 1   
    13     6     7 1   
    14     7     8 1   
    15     7    12 1   
    16     7    33 1   
    17     8     9 1   
    18     8    10 1   
    19     8    34 1   
    20     9    35 1   
    21    10    11 1   
    22    10    36 1   
    23    11    37 1   
    24    12    13 1   
    25    12    16 2   
    26    13    14 1   
    27    13    38 1   
    28    14    15 2   
    29    15    16 1   
    30    15    17 1   
    31    17    18 ar  
    32    17    26 ar  
    33    18    19 ar  
    34    18    39 1   
    35    19    20 ar  
    36    19    24 ar  
    37    20    21 ar  
    38    20    40 1   
    39    21    22 ar  
    40    21    41 1   
    41    22    23 ar  
    42    22    42 1   
    43    23    24 ar  
    44    23    43 1   
    45    24    25 ar  
    46    25    26 ar  
    47    25    44 1   
    48    26    45 1   
@<TRIPOS>SUBSTRUCTURE
     1 KS3         1 TEMP              0 ****  ****    0 ROOT
