@<TRIPOS>MOLECULE
KS4
   43    46     1     0     0
SMALL
No Charge or Current Charge


@<TRIPOS>ATOM
      1 CAI          3.2820   -21.1460   -29.6860 cy         1 KS4      -0.098400
      2 CAH          3.0570   -20.9580   -28.1480 cy         1 KS4      -0.090400
      3 CAJ          3.1250   -22.5200   -28.0690 cy         1 KS4      -0.098400
      4 CAW          2.5140   -22.5020   -29.5120 cy         1 KS4       0.083300
      5 NAX          2.7450   -23.6150   -30.4250 na         1 KS4      -0.019100
      6 NAM          4.0450   -24.0000   -30.7750 nc         1 KS4      -0.518100
      7 C4           1.8010   -24.4390   -31.0260 ca         1 KS4       0.168500
      8 N3           0.4570   -24.4780   -30.9310 nb         1 KS4      -0.235000
      9 C2          -0.1500   -25.4820   -31.6070 ca         1 KS4       0.193900
     10 N1           0.4590   -26.4500   -32.3330 nb         1 KS4      -0.312000
     11 C6           1.7950   -26.3820   -32.4040 ca         1 KS4       0.455900
     12 NAC          2.3920   -27.3900   -33.0730 nv         1 KS4      -1.076900
     13 C5           2.4860   -25.3530   -31.7730 ca         1 KS4      -0.382900
     14 CAT          3.8810   -25.0290   -31.6150 cd         1 KS4       0.442500
     15 CAP          5.0250   -25.6930   -32.2700 ca         1 KS4      -0.103900
     16 CAG          5.0250   -25.9290   -33.6610 ca         1 KS4      -0.172000
     17 CAD          6.1810   -25.9980   -31.5260 ca         1 KS4      -0.074000
     18 CAE          7.2980   -26.5850   -32.1430 ca         1 KS4      -0.172000
     19 CAR          7.2850   -26.8560   -33.5300 ca         1 KS4       0.119100
     20 OAN          8.3680   -27.4350   -34.1710 os         1 KS4      -0.327100
     21 CAA          9.5710   -27.8060   -33.4740 c3         1 KS4       0.145900
     22 CAS          6.1420   -26.5200   -34.2950 ca         1 KS4       0.106100
     23 OAO          6.1570   -26.7750   -35.6570 os         1 KS4      -0.329100
     24 CAB          5.0390   -26.4770   -36.5120 c3         1 KS4       0.145900
     25 HAI          2.8030   -20.4080   -30.3370 hc         1 KS4       0.064700
     26 HAIA         4.3320   -21.2470   -29.9850 hc         1 KS4       0.064700
     27 HAH          3.8420   -20.4150   -27.6110 hc         1 KS4       0.053200
     28 HAHA         2.0850   -20.5280   -27.8770 hc         1 KS4       0.053200
     29 HAJ          4.1400   -22.9310   -28.0060 hc         1 KS4       0.064700
     30 HAJA         2.5090   -22.9900   -27.2960 hc         1 KS4       0.064700
     31 HAW          1.4270   -22.3550   -29.4940 h1         1 KS4       0.092700
     32 H2          -1.2360   -25.5270   -31.5440 h5         1 KS4       0.046100
     33 HNAC         1.8370   -28.2160   -33.2810 hn         1 KS4       0.506000
     34 HNAA         3.3910   -27.5250   -32.9570 hn         1 KS4       0.506000
     35 HAG          4.1520   -25.6320   -34.2360 ha         1 KS4       0.126000
     36 HAD          6.2100   -25.7870   -30.4580 ha         1 KS4       0.128000
     37 HAE          8.1640   -26.8170   -31.5300 ha         1 KS4       0.122000
     38 HAA         10.2940   -28.2470   -34.1720 h1         1 KS4       0.043033
     39 HAAA        10.0400   -26.9290   -33.0100 h1         1 KS4       0.043033
     40 HAAB         9.3570   -28.5480   -32.6940 h1         1 KS4       0.043033
     41 HAB          4.1440   -27.0260   -36.1910 h1         1 KS4       0.041700
     42 HABA         4.8150   -25.4020   -36.5030 h1         1 KS4       0.041700
     43 HABB         5.2630   -26.7670   -37.5460 h1         1 KS4       0.041700
@<TRIPOS>BOND
     1     1     2 1   
     2     1     4 1   
     3     1    25 1   
     4     1    26 1   
     5     2     3 1   
     6     2    27 1   
     7     2    28 1   
     8     3     4 1   
     9     3    29 1   
    10     3    30 1   
    11     4     5 1   
    12     4    31 1   
    13     5     6 1   
    14     5     7 1   
    15     6    14 2   
    16     7     8 ar  
    17     7    13 ar  
    18     8     9 ar  
    19     9    10 ar  
    20     9    32 1   
    21    10    11 ar  
    22    11    12 1   
    23    11    13 ar  
    24    12    33 1   
    25    12    34 1   
    26    13    14 1   
    27    14    15 1   
    28    15    16 ar  
    29    15    17 ar  
    30    16    22 ar  
    31    16    35 1   
    32    17    18 ar  
    33    17    36 1   
    34    18    19 ar  
    35    18    37 1   
    36    19    20 1   
    37    19    22 ar  
    38    20    21 1   
    39    21    38 1   
    40    21    39 1   
    41    21    40 1   
    42    22    23 1   
    43    23    24 1   
    44    24    41 1   
    45    24    42 1   
    46    24    43 1   
@<TRIPOS>SUBSTRUCTURE
     1 KS4         1 TEMP              0 ****  ****    0 ROOT
