@<TRIPOS>MOLECULE
KS4
   43    46     1     0     0
SMALL
abcg2


@<TRIPOS>ATOM
      1 CAI          3.1390   -21.2200   -29.7470 cy         1 KS4      -0.098400
      2 CAH          3.3690   -21.1120   -28.2170 cy         1 KS4      -0.090400
      3 CAJ          3.1770   -22.6470   -28.1150 cy         1 KS4      -0.098400
      4 CAW          2.4780   -22.5930   -29.4920 cy         1 KS4       0.083300
      5 NAX          2.7050   -23.6660   -30.4320 na         1 KS4      -0.019100
      6 NAM          3.9630   -24.0100   -30.8250 nc         1 KS4      -0.518100
      7 C4           1.7790   -24.4610   -31.0210 ca         1 KS4       0.168500
      8 N3           0.4460   -24.4140   -30.8540 nb         1 KS4      -0.235000
      9 C2          -0.1820   -25.3590   -31.5410 ca         1 KS4       0.193900
     10 N1           0.3470   -26.3160   -32.3130 nb         1 KS4      -0.312000
     11 C6           1.6840   -26.3620   -32.4660 ca         1 KS4       0.455900
     12 NAC          2.1880   -27.3610   -33.2040 nv         1 KS4      -1.076900
     13 C5           2.4770   -25.3710   -31.8350 ca         1 KS4      -0.382900
     14 CAT          3.8560   -25.0270   -31.6680 cd         1 KS4       0.442500
     15 CAP          5.0490   -25.6280   -32.2780 ca         1 KS4      -0.103900
     16 CAG          5.0610   -25.9330   -33.6490 ca         1 KS4      -0.172000
     17 CAD          6.1830   -25.8910   -31.5200 ca         1 KS4      -0.074000
     18 CAE          7.3120   -26.4570   -32.1090 ca         1 KS4      -0.172000
     19 CAR          7.3230   -26.7730   -33.4620 ca         1 KS4       0.119100
     20 OAN          8.3700   -27.3330   -34.1180 os         1 KS4      -0.327100
     21 CAA          9.5470   -27.6340   -33.3680 c3         1 KS4       0.145900
     22 CAS          6.1760   -26.5030   -34.2430 ca         1 KS4       0.106100
     23 OAO          6.2640   -26.8280   -35.5590 os         1 KS4      -0.329100
     24 CAB          5.1140   -26.6170   -36.3770 c3         1 KS4       0.145900
     25 HAI          2.5300   -20.4610   -30.2360 hc         1 KS4       0.064700
     26 HAIA         4.0800   -21.3380   -30.2840 hc         1 KS4       0.064700
     27 HAH          4.3240   -20.7090   -27.8870 hc         1 KS4       0.053200
     28 HAHA         2.5620   -20.5690   -27.7230 hc         1 KS4       0.053200
     29 HAJ          4.1290   -23.1730   -28.1870 hc         1 KS4       0.064700
     30 HAJA         2.6000   -23.0450   -27.2820 hc         1 KS4       0.064700
     31 HAW          1.3990   -22.5050   -29.3900 h1         1 KS4       0.092700
     32 H2          -1.2650   -25.3690   -31.4630 h5         1 KS4       0.046100
     33 HNAC         1.5650   -28.0570   -33.5780 hn         1 KS4       0.506000
     34 HNAA         3.1800   -27.4890   -33.3110 hn         1 KS4       0.506000
     35 HAG          4.2000   -25.6880   -34.2510 ha         1 KS4       0.126000
     36 HAD          6.1870   -25.6680   -30.4620 ha         1 KS4       0.128000
     37 HAE          8.1790   -26.6600   -31.4990 ha         1 KS4       0.122000
     38 HAA         10.2440   -28.0750   -34.0760 h1         1 KS4       0.043033
     39 HAAA         9.9820   -26.7280   -32.9390 h1         1 KS4       0.043033
     40 HAAB         9.3300   -28.3490   -32.5710 h1         1 KS4       0.043033
     41 HAB          4.2580   -27.1830   -36.0010 h1         1 KS4       0.041700
     42 HABA         4.8560   -25.5570   -36.4280 h1         1 KS4       0.041700
     43 HABB         5.3850   -26.9760   -37.3670 h1         1 KS4       0.041700
@<TRIPOS>BOND
     1     1     2 1   
     2     1     4 1   
     3     1    25 1   
     4     1    26 1   
     5     2     3 1   
     6     2    27 1   
     7     2    28 1   
     8     3     4 1   
     9     3    29 1   
    10     3    30 1   
    11     4     5 1   
    12     4    31 1   
    13     5     6 1   
    14     5     7 1   
    15     6    14 2   
    16     7     8 ar  
    17     7    13 ar  
    18     8     9 ar  
    19     9    10 ar  
    20     9    32 1   
    21    10    11 ar  
    22    11    12 1   
    23    11    13 ar  
    24    12    33 1   
    25    12    34 1   
    26    13    14 1   
    27    14    15 1   
    28    15    16 ar  
    29    15    17 ar  
    30    16    22 ar  
    31    16    35 1   
    32    17    18 ar  
    33    17    36 1   
    34    18    19 ar  
    35    18    37 1   
    36    19    20 1   
    37    19    22 ar  
    38    20    21 1   
    39    21    38 1   
    40    21    39 1   
    41    21    40 1   
    42    22    23 1   
    43    23    24 1   
    44    24    41 1   
    45    24    42 1   
    46    24    43 1   
@<TRIPOS>SUBSTRUCTURE
     1 KS4         1 TEMP              0 ****  ****    0 ROOT
