@<TRIPOS>MOLECULE
KS5
   39    42     1     0     0
SMALL
No Charge or Current Charge


@<TRIPOS>ATOM
      1 CAA          4.3240     2.4380    -0.7830 c3         1 KS5      -0.104100
      2 CAV          3.9620     1.5910     0.4560 c3         1 KS5       0.110300
      3 CAB          3.8970     2.4480     1.7400 c3         1 KS5      -0.104100
      4 NAW          2.7190     0.8150     0.2450 na         1 KS5      -0.014100
      5 NAN          1.4560     1.3970     0.0990 nc         1 KS5      -0.515100
      6 C4           2.6780    -0.5670     0.1150 ca         1 KS5       0.155500
      7 N3           3.6440    -1.5070     0.1250 nb         1 KS5      -0.232000
      8 C2           3.2290    -2.7740    -0.1120 ca         1 KS5       0.196900
      9 N1           1.9630    -3.1720    -0.3850 nb         1 KS5      -0.312000
     10 C6           1.0290    -2.2110    -0.3900 ca         1 KS5       0.454900
     11 NAC         -0.2120    -2.6140    -0.7330 nv         1 KS5      -1.067900
     12 C5           1.3700    -0.8910    -0.1080 ca         1 KS5      -0.377900
     13 CAQ          0.6370     0.3550    -0.0790 cd         1 KS5       0.425500
     14 CAP         -0.8230     0.5250    -0.2030 ca         1 KS5      -0.088900
     15 CAJ         -1.7100    -0.2610     0.5600 ca         1 KS5      -0.095000
     16 CAR         -3.1000    -0.0560     0.4760 ca         1 KS5      -0.088000
     17 CAH         -3.9770    -0.8580     1.2280 ca         1 KS5      -0.060000
     18 CAD         -5.3550    -0.6220     1.1170 ca         1 KS5      -0.167000
     19 CAE         -5.8060     0.4000     0.2670 ca         1 KS5       0.354900
     20 NAL         -4.9670     1.1790    -0.4550 nb         1 KS5      -0.659000
     21 CAS         -3.6340     0.9610    -0.3570 ca         1 KS5       0.272000
     22 CAI         -2.7380     1.7630    -1.0860 ca         1 KS5      -0.085000
     23 CAG         -1.3490     1.5590    -1.0030 ca         1 KS5      -0.078000
     24 HAA          5.2840     2.9480    -0.6370 hc         1 KS5       0.048867
     25 HAAA         4.4090     1.8020    -1.6720 hc         1 KS5       0.048867
     26 HAAB         3.5570     3.1980    -0.9760 hc         1 KS5       0.048867
     27 HAV          4.7780     0.8690     0.5980 h1         1 KS5       0.083700
     28 HAB          3.6770     1.8180     2.6100 hc         1 KS5       0.048867
     29 HABA         4.8560     2.9500     1.9170 hc         1 KS5       0.048867
     30 HABB         3.1170     3.2140     1.6610 hc         1 KS5       0.048867
     31 H2           3.9950    -3.5480    -0.1050 h5         1 KS5       0.046100
     32 HNAC        -0.3120    -3.5380    -1.1440 hn         1 KS5       0.501000
     33 HNAA        -0.8900    -1.9130    -1.0150 hn         1 KS5       0.501000
     34 HAJ         -1.3160    -1.0230     1.2280 ha         1 KS5       0.123000
     35 HAH         -3.6010    -1.6450     1.8800 ha         1 KS5       0.120000
     36 HAD         -6.0690    -1.2190     1.6770 ha         1 KS5       0.125000
     37 HAE         -6.8710     0.6050     0.1620 h4         1 KS5       0.020100
     38 HAI         -3.1260     2.5560    -1.7200 ha         1 KS5       0.135000
     39 HAG         -0.6800     2.2020    -1.5710 ha         1 KS5       0.131000
@<TRIPOS>BOND
     1     1     2 1   
     2     1    24 1   
     3     1    25 1   
     4     1    26 1   
     5     2     3 1   
     6     2     4 1   
     7     2    27 1   
     8     3    28 1   
     9     3    29 1   
    10     3    30 1   
    11     4     5 1   
    12     4     6 1   
    13     5    13 2   
    14     6     7 ar  
    15     6    12 ar  
    16     7     8 ar  
    17     8     9 ar  
    18     8    31 1   
    19     9    10 ar  
    20    10    11 1   
    21    10    12 ar  
    22    11    32 1   
    23    11    33 1   
    24    12    13 1   
    25    13    14 1   
    26    14    15 ar  
    27    14    23 ar  
    28    15    16 ar  
    29    15    34 1   
    30    16    17 ar  
    31    16    21 ar  
    32    17    18 ar  
    33    17    35 1   
    34    18    19 ar  
    35    18    36 1   
    36    19    20 ar  
    37    19    37 1   
    38    20    21 ar  
    39    21    22 ar  
    40    22    23 ar  
    41    22    38 1   
    42    23    39 1   
@<TRIPOS>SUBSTRUCTURE
     1 KS5         1 TEMP              0 ****  ****    0 ROOT
