@<TRIPOS>MOLECULE
KS5
   39    42     1     0     0
SMALL
abcg2


@<TRIPOS>ATOM
      1 CAA          4.0510     2.4840    -0.8590 c3         1 KS5      -0.104100
      2 CAV          3.8780     1.5870     0.3580 c3         1 KS5       0.110300
      3 CAB          3.7780     2.3810     1.6520 c3         1 KS5      -0.104100
      4 NAW          2.7180     0.7230     0.1930 na         1 KS5      -0.014100
      5 NAN          1.4860     1.2360     0.1190 nc         1 KS5      -0.515100
      6 C4           2.6970    -0.6170     0.0760 ca         1 KS5       0.155500
      7 N3           3.7480    -1.4420     0.1060 nb         1 KS5      -0.232000
      8 C2           3.3970    -2.7000    -0.0590 ca         1 KS5       0.196900
      9 N1           2.1810    -3.1980    -0.2780 nb         1 KS5      -0.312000
     10 C6           1.1390    -2.3660    -0.3290 ca         1 KS5       0.454900
     11 NAC         -0.0600    -2.8880    -0.6000 nv         1 KS5      -1.067900
     12 C5           1.3590    -0.9880    -0.0920 ca         1 KS5      -0.377900
     13 CAQ          0.6440     0.2410    -0.0410 cd         1 KS5       0.425500
     14 CAP         -0.7950     0.5070    -0.1190 ca         1 KS5      -0.088900
     15 CAJ         -1.7050    -0.3120     0.5040 ca         1 KS5      -0.095000
     16 CAR         -3.0880    -0.0400     0.4390 ca         1 KS5      -0.088000
     17 CAH         -4.0570    -0.8600     1.0580 ca         1 KS5      -0.060000
     18 CAD         -5.3770    -0.5260     0.9480 ca         1 KS5      -0.167000
     19 CAE         -5.7250     0.6310     0.2200 ca         1 KS5       0.354900
     20 NAL         -4.8570     1.4150    -0.3640 nb         1 KS5      -0.659000
     21 CAS         -3.5450     1.1010    -0.2650 ca         1 KS5       0.272000
     22 CAI         -2.5910     1.9420    -0.8840 ca         1 KS5      -0.085000
     23 CAG         -1.2590     1.6550    -0.8120 ca         1 KS5      -0.078000
     24 HAA          4.9720     3.0580    -0.7640 hc         1 KS5       0.048867
     25 HAAA         4.1100     1.9010    -1.7770 hc         1 KS5       0.048867
     26 HAAB         3.2240     3.1900    -0.9490 hc         1 KS5       0.048867
     27 HAV          4.7270     0.9040     0.4210 h1         1 KS5       0.083700
     28 HAB          3.6710     1.7230     2.5150 hc         1 KS5       0.048867
     29 HABA         4.6840     2.9720     1.7880 hc         1 KS5       0.048867
     30 HABB         2.9290     3.0640     1.6290 hc         1 KS5       0.048867
     31 H2           4.1980    -3.4300    -0.0240 h5         1 KS5       0.046100
     32 HNAC        -0.1200    -3.8600    -0.8510 hn         1 KS5       0.501000
     33 HNAA        -0.8460    -2.3040    -0.8280 hn         1 KS5       0.501000
     34 HAJ         -1.3750    -1.1680     1.0810 ha         1 KS5       0.123000
     35 HAH         -3.7460    -1.7410     1.6050 ha         1 KS5       0.120000
     36 HAD         -6.1510    -1.1270     1.4030 ha         1 KS5       0.125000
     37 HAE         -6.7700     0.9050     0.1260 h4         1 KS5       0.020100
     38 HAI         -2.9410     2.8160    -1.4190 ha         1 KS5       0.135000
     39 HAG         -0.5410     2.3020    -1.2980 ha         1 KS5       0.131000
@<TRIPOS>BOND
     1     1     2 1   
     2     1    24 1   
     3     1    25 1   
     4     1    26 1   
     5     2     3 1   
     6     2     4 1   
     7     2    27 1   
     8     3    28 1   
     9     3    29 1   
    10     3    30 1   
    11     4     5 1   
    12     4     6 1   
    13     5    13 2   
    14     6     7 ar  
    15     6    12 ar  
    16     7     8 ar  
    17     8     9 ar  
    18     8    31 1   
    19     9    10 ar  
    20    10    11 1   
    21    10    12 ar  
    22    11    32 1   
    23    11    33 1   
    24    12    13 1   
    25    13    14 1   
    26    14    15 ar  
    27    14    23 ar  
    28    15    16 ar  
    29    15    34 1   
    30    16    17 ar  
    31    16    21 ar  
    32    17    18 ar  
    33    17    35 1   
    34    18    19 ar  
    35    18    36 1   
    36    19    20 ar  
    37    19    37 1   
    38    20    21 ar  
    39    21    22 ar  
    40    22    23 ar  
    41    22    38 1   
    42    23    39 1   
@<TRIPOS>SUBSTRUCTURE
     1 KS5         1 TEMP              0 ****  ****    0 ROOT
