@<TRIPOS>MOLECULE
KS6
   58    61     1     0     0
SMALL
abcg2


@<TRIPOS>ATOM
      1 C5         -18.6800    12.1710    14.0380 c6         1 KS6       0.096500
      2 C6         -18.3640    12.5740    12.6060 c6         1 KS6       0.147800
      3 C8         -19.0140    10.4220    11.8500 c6         1 KS6       0.147800
      4 C10        -17.5230    11.7020    10.4560 c6         1 KS6       0.195500
      5 C13        -15.4470    12.1010     8.3660 c6         1 KS6      -0.096400
      6 C15        -16.6160    10.5670     9.9690 c6         1 KS6      -0.088400
      7 C17        -15.1890     9.2560     6.8500 c          1 KS6       0.633300
      8 C20        -13.6580     7.2520     7.4970 cc         1 KS6      -0.180200
      9 C21        -12.9000     6.3550     6.6970 ca         1 KS6      -0.153800
     10 C22        -12.0650     5.2690     6.9640 ca         1 KS6       0.222000
     11 C24        -11.6730     4.9920     4.6130 ca         1 KS6      -0.063000
     12 C26        -13.0950     6.7210     5.3480 ca         1 KS6      -0.014200
     13 C1         -21.1620    12.4980    15.4910 c3         1 KS6      -0.177100
     14 O3         -21.7270    10.3420    14.6500 o          1 KS6      -0.605100
     15 N4         -19.7010    11.1460    14.0720 n          1 KS6      -0.416800
     16 N7         -17.9560    11.4180    11.8280 n3         1 KS6      -0.727600
     17 C9         -19.3470     9.9940    13.2680 c6         1 KS6       0.096500
     18 C11        -16.7810    13.0290    10.3030 c6         1 KS6      -0.083400
     19 C12        -16.3300    13.2380     8.8610 c6         1 KS6      -0.072400
     20 C14        -16.1700    10.7670     8.5240 c6         1 KS6       0.111700
     21 N16        -15.3410     9.6440     8.1240 ns         1 KS6      -0.488900
     22 O18        -15.7590     9.7790     5.9000 o          1 KS6      -0.618100
     23 C19        -14.2750     8.1150     6.6290 cd         1 KS6      -0.149300
     24 C23        -11.4540     4.5900     5.9470 ca         1 KS6      -0.183000
     25 C25        -12.4870     6.0530     4.2730 ca         1 KS6      -0.106300
     26 N27        -13.9370     7.7870     5.3450 na         1 KS6      -0.180700
     27 H1         -17.7710    11.7890    14.5140 h1         1 KS6       0.059950
     28 H2         -18.9910    13.0520    14.5940 h1         1 KS6       0.059950
     29 H3         -17.5540    13.3010    12.6510 h1         1 KS6       0.040450
     30 H4         -19.2430    13.0840    12.1760 h1         1 KS6       0.040450
     31 H5         -19.9310    10.7970    11.3630 h1         1 KS6       0.040450
     32 H6         -18.7040     9.5350    11.2970 h1         1 KS6       0.040450
     33 H7         -18.4050    11.7500     9.7900 h1         1 KS6       0.028700
     34 H8         -14.5180    12.0710     8.9440 hc         1 KS6       0.051700
     35 H9         -15.1710    12.2580     7.3210 hc         1 KS6       0.051700
     36 H10        -17.1160     9.6000    10.0510 hc         1 KS6       0.053200
     37 H11        -15.7360    10.5320    10.6210 hc         1 KS6       0.053200
     38 H12        -13.7390     7.2430     8.5720 ha         1 KS6       0.209000
     39 H13        -11.1760     4.4400     3.8250 ha         1 KS6       0.115000
     40 H14        -13.7720     6.4050     2.5800 hc         1 KS6       0.043700
     41 H15        -12.4220     7.5220     2.7010 hc         1 KS6       0.043700
     42 H16        -12.1470     5.8670     2.1640 hc         1 KS6       0.043700
     43 H17        -22.1320    12.4110    15.9730 hc         1 KS6       0.059367
     44 H18        -20.4090    12.6630    16.2620 hc         1 KS6       0.059367
     45 H19        -21.1750    13.3810    14.8510 hc         1 KS6       0.059367
     46 H21        -20.1690     9.2840    13.2600 h1         1 KS6       0.059950
     47 H22        -18.4770     9.4990    13.7140 h1         1 KS6       0.059950
     48 H23        -15.9100    13.0390    10.9670 hc         1 KS6       0.047200
     49 H24        -17.4170    13.8670    10.5920 hc         1 KS6       0.047200
     50 H25        -15.7990    14.1880     8.7770 hc         1 KS6       0.045700
     51 H26        -17.2120    13.3180     8.2160 hc         1 KS6       0.045700
     52 H27        -17.0550    10.7690     7.8820 h1         1 KS6       0.076700
     53 H28        -14.7420     9.2440     8.8290 hn         1 KS6       0.319500
     54 H29        -10.8060     3.7510     6.1610 ha         1 KS6       0.131000
     55 H30        -14.2750     8.2800     4.5330 hn         1 KS6       0.373000
     56 C2         -20.8930    11.2370    14.7010 c          1 KS6       0.609100
     57 F29        -11.8740     4.9100     8.2440 f          1 KS6      -0.176000
     58 C28        -12.7180     6.4830     2.8570 c3         1 KS6      -0.042800
@<TRIPOS>BOND
     1     1     2 1   
     2     1    15 1   
     3     1    27 1   
     4     1    28 1   
     5     2    16 1   
     6     2    29 1   
     7     2    30 1   
     8     3    16 1   
     9     3    17 1   
    10     3    31 1   
    11     3    32 1   
    12     4     6 1   
    13     4    16 1   
    14     4    18 1   
    15     4    33 1   
    16     5    19 1   
    17     5    20 1   
    18     5    34 1   
    19     5    35 1   
    20     6    20 1   
    21     6    36 1   
    22     6    37 1   
    23     7    21 1   
    24     7    22 2   
    25     7    23 1   
    26     8     9 1   
    27     8    23 2   
    28     8    38 1   
    29     9    10 ar  
    30     9    12 ar  
    31    10    24 ar  
    32    10    57 1   
    33    11    24 ar  
    34    11    25 ar  
    35    11    39 1   
    36    12    25 ar  
    37    12    26 1   
    38    13    43 1   
    39    13    44 1   
    40    13    45 1   
    41    13    56 1   
    42    14    56 2   
    43    15    17 1   
    44    15    56 1   
    45    17    46 1   
    46    17    47 1   
    47    18    19 1   
    48    18    48 1   
    49    18    49 1   
    50    19    50 1   
    51    19    51 1   
    52    20    21 1   
    53    20    52 1   
    54    21    53 1   
    55    23    26 1   
    56    24    54 1   
    57    25    58 1   
    58    26    55 1   
    59    40    58 1   
    60    41    58 1   
    61    42    58 1   
@<TRIPOS>SUBSTRUCTURE
     1 KS6         1 TEMP              0 ****  ****    0 ROOT
