@<TRIPOS>MOLECULE
KS6
   58    61     1     0     0
SMALL
No Charge or Current Charge


@<TRIPOS>ATOM
      1 C5         -19.2440    12.4090    13.8190 c6         1 KS6       0.096500
      2 C6         -18.7250    12.7020    12.3840 c6         1 KS6       0.147800
      3 C8         -18.8640    10.3660    11.7810 c6         1 KS6       0.147800
      4 C10        -17.4280    11.8880    10.4040 c6         1 KS6       0.195500
      5 C13        -15.1030    12.2390     8.4890 c6         1 KS6      -0.096400
      6 C15        -16.6310    10.6890     9.7860 c6         1 KS6      -0.088400
      7 C17        -15.0450     9.5830     6.5530 c          1 KS6       0.633300
      8 C20        -13.7580     7.4720     7.2880 cc         1 KS6      -0.180200
      9 C21        -13.0570     6.4280     6.6030 ca         1 KS6      -0.153800
     10 C22        -12.3790     5.3060     7.0980 ca         1 KS6       0.222000
     11 C24        -11.8520     4.6960     4.7900 ca         1 KS6      -0.063000
     12 C26        -13.1390     6.6870     5.2640 ca         1 KS6      -0.014200
     13 C1         -21.2700    11.9940    15.9690 c3         1 KS6      -0.177100
     14 O3         -20.9430     9.6750    15.4850 o          1 KS6      -0.605100
     15 N4         -19.9670    11.1120    13.9800 n          1 KS6      -0.416800
     16 N7         -17.9670    11.5630    11.7790 n3         1 KS6      -0.727600
     17 C9         -19.3790     9.9870    13.1950 c6         1 KS6       0.096500
     18 C11        -16.4970    13.1480    10.4210 c6         1 KS6      -0.083400
     19 C12        -15.8740    13.4560     9.0390 c6         1 KS6      -0.072400
     20 C14        -16.0340    11.0100     8.3930 c6         1 KS6       0.111700
     21 N16        -15.2970     9.8500     7.8800 ns         1 KS6      -0.488900
     22 O18        -15.4470    10.3060     5.6510 o          1 KS6      -0.618100
     23 C19        -14.2480     8.3430     6.3110 cd         1 KS6      -0.149300
     24 C23        -11.7710     4.4320     6.1780 ca         1 KS6      -0.183000
     25 C25        -12.5430     5.8360     4.3140 ca         1 KS6      -0.106300
     26 N27        -13.8590     7.8500     5.0370 na         1 KS6      -0.180700
     27 H1         -18.3860    12.4110    14.5060 h1         1 KS6       0.059950
     28 H2         -19.8940    13.2450    14.1110 h1         1 KS6       0.059950
     29 H3         -18.1020    13.6020    12.4670 h1         1 KS6       0.040450
     30 H4         -19.5840    12.9620    11.7480 h1         1 KS6       0.040450
     31 H5         -19.7310    10.5430    11.1270 h1         1 KS6       0.040450
     32 H6         -18.3490     9.4750    11.4000 h1         1 KS6       0.040450
     33 H7         -18.2710    12.1070     9.7310 h1         1 KS6       0.028700
     34 H8         -14.2450    12.0150     9.1380 hc         1 KS6       0.051700
     35 H9         -14.6950    12.4800     7.4990 hc         1 KS6       0.051700
     36 H10        -17.2840     9.8180     9.6540 hc         1 KS6       0.053200
     37 H11        -15.8330    10.3840    10.4770 hc         1 KS6       0.053200
     38 H12        -13.8810     7.5620     8.3660 ha         1 KS6       0.209000
     39 H13        -11.3780     4.0130     4.0880 ha         1 KS6       0.115000
     40 H14        -13.6810     6.1510     2.4910 hc         1 KS6       0.043700
     41 H15        -12.1840     7.0980     2.5830 hc         1 KS6       0.043700
     42 H16        -12.1180     5.3670     2.2260 hc         1 KS6       0.043700
     43 H17        -21.9150    11.6580    16.7880 hc         1 KS6       0.059367
     44 H18        -20.4430    12.6060    16.3460 hc         1 KS6       0.059367
     45 H19        -21.7970    12.6830    15.2990 hc         1 KS6       0.059367
     46 H21        -20.1250     9.1870    13.0860 h1         1 KS6       0.059950
     47 H22        -18.5400     9.5700    13.7700 h1         1 KS6       0.059950
     48 H23        -15.6990    13.0070    11.1630 hc         1 KS6       0.047200
     49 H24        -17.0540    14.0420    10.7230 hc         1 KS6       0.047200
     50 H25        -15.1980    14.3180     9.1200 hc         1 KS6       0.045700
     51 H26        -16.6640    13.7450     8.3320 hc         1 KS6       0.045700
     52 H27        -16.8580    11.2350     7.6990 h1         1 KS6       0.076700
     53 H28        -14.9210     9.1900     8.5460 hn         1 KS6       0.319500
     54 H29        -11.2400     3.5550     6.5370 ha         1 KS6       0.131000
     55 H30        -14.0700     8.2720     4.1380 hn         1 KS6       0.373000
     56 C2         -20.7040    10.8300    15.1530 c          1 KS6       0.609100
     57 F29        -12.3100     5.0660     8.4260 f          1 KS6      -0.176000
     58 C28        -12.6360     6.1280     2.8220 c3         1 KS6      -0.042800
@<TRIPOS>BOND
     1     1     2 1   
     2     1    15 1   
     3     1    27 1   
     4     1    28 1   
     5     2    16 1   
     6     2    29 1   
     7     2    30 1   
     8     3    16 1   
     9     3    17 1   
    10     3    31 1   
    11     3    32 1   
    12     4     6 1   
    13     4    16 1   
    14     4    18 1   
    15     4    33 1   
    16     5    19 1   
    17     5    20 1   
    18     5    34 1   
    19     5    35 1   
    20     6    20 1   
    21     6    36 1   
    22     6    37 1   
    23     7    21 1   
    24     7    22 2   
    25     7    23 1   
    26     8     9 1   
    27     8    23 2   
    28     8    38 1   
    29     9    10 ar  
    30     9    12 ar  
    31    10    24 ar  
    32    10    57 1   
    33    11    24 ar  
    34    11    25 ar  
    35    11    39 1   
    36    12    25 ar  
    37    12    26 1   
    38    13    43 1   
    39    13    44 1   
    40    13    45 1   
    41    13    56 1   
    42    14    56 2   
    43    15    17 1   
    44    15    56 1   
    45    17    46 1   
    46    17    47 1   
    47    18    19 1   
    48    18    48 1   
    49    18    49 1   
    50    19    50 1   
    51    19    51 1   
    52    20    21 1   
    53    20    52 1   
    54    21    53 1   
    55    23    26 1   
    56    24    54 1   
    57    25    58 1   
    58    26    55 1   
    59    40    58 1   
    60    41    58 1   
    61    42    58 1   
@<TRIPOS>SUBSTRUCTURE
     1 KS6         1 TEMP              0 ****  ****    0 ROOT
