@<TRIPOS>MOLECULE
KS7
   66    70     1     0     0
SMALL
abcg2


@<TRIPOS>ATOM
      1 C4           8.8460     0.0000    -2.6160 c3         1 KS7       0.149900
      2 C5           5.4700     0.5130    -1.3930 ca         1 KS7      -0.144000
      3 C6           4.6340     0.0910    -0.3640 ca         1 KS7      -0.075500
      4 N1           0.1740     0.9500     1.0640 nh         1 KS7      -0.774300
      5 C7           3.2680     0.6140    -0.2650 cc         1 KS7       0.646500
      6 C8           1.3390     0.9400     0.4280 cd         1 KS7       0.742900
      7 N2          -4.8460     0.3830    -0.3380 nh         1 KS7      -0.799400
      8 C9          -0.8970     1.8810     0.7400 c6         1 KS7       0.198800
      9 C10         -2.2550     1.1700     0.8110 c6         1 KS7       0.188200
     10 C11         -3.3640     2.1780     0.5310 c6         1 KS7      -0.078400
     11 C12         -4.7460     1.5470     0.5310 c6         1 KS7       0.225800
     12 N3          -8.6690    -1.0570    -1.3480 nb         1 KS7      -0.707000
     13 C13         -6.0910    -0.0920    -0.6440 ca         1 KS7       0.366000
     14 C14         -6.2950    -1.3450    -1.2540 ca         1 KS7      -0.242000
     15 C15         -7.5690    -1.7740    -1.5900 ca         1 KS7       0.383300
     16 N4          -2.4380     0.5140     2.1100 n3         1 KS7      -0.719600
     17 C21         -2.6940     1.4110     3.2240 c3         1 KS7       0.153100
     18 C20         -2.3780     0.1480    -0.3220 c6         1 KS7      -0.078400
     19 C19         -3.7240    -0.5480    -0.3330 c6         1 KS7       0.225800
     20 C18         -7.2660     0.6380    -0.3780 ca         1 KS7      -0.253000
     21 C17         -8.4880     0.1150    -0.7510 ca         1 KS7       0.371900
     22 C16         -7.7680    -3.1000    -2.2630 c3         1 KS7      -0.144400
     23 C22         -1.3490    -0.4060     2.3940 c6         1 KS7       0.153800
     24 C23          0.0300     0.2380     2.3270 c6         1 KS7       0.190800
     25 O2           1.4990     1.6900    -0.6620 os         1 KS7      -0.131700
     26 N            2.7870     1.4650    -1.1210 nd         1 KS7      -0.397300
     27 N5           2.4120     0.2530     0.7230 nc         1 KS7      -0.800000
     28 C3           6.7640     0.0100    -1.4660 ca         1 KS7       0.166100
     29 O1           7.5160     0.4610    -2.4860 os         1 KS7      -0.339600
     30 C2           7.2250    -0.9070    -0.5200 ca         1 KS7      -0.271000
     31 C24          5.0730    -0.8220     0.5840 ca         1 KS7      -0.144000
     32 C1           6.3720    -1.3190     0.5020 ca         1 KS7       0.166100
     33 O            6.7260    -2.2000     1.4540 os         1 KS7      -0.339600
     34 C            8.0300    -2.7460     1.4340 c3         1 KS7       0.149900
     35 H1           9.4580     0.2650    -1.7500 h1         1 KS7       0.040533
     36 H2           8.8930    -1.0820    -2.7660 h1         1 KS7       0.040533
     37 H3           9.2560     0.4920    -3.4950 h1         1 KS7       0.040533
     38 H4           5.1290     1.2240    -2.1340 ha         1 KS7       0.149000
     39 H5          -0.8730     2.7180     1.4490 h1         1 KS7       0.064700
     40 H6          -0.7490     2.2980    -0.2550 h1         1 KS7       0.064700
     41 H7          -3.3660     3.0060     1.2420 hc         1 KS7       0.056200
     42 H8          -3.1700     2.6200    -0.4500 hc         1 KS7       0.056200
     43 H9          -5.4380     2.3120     0.1800 h1         1 KS7       0.046450
     44 H10         -5.0490     1.2900     1.5530 h1         1 KS7       0.046450
     45 H11         -5.4710    -2.0070    -1.4770 ha         1 KS7       0.117000
     46 H13         -3.6700     1.8860     3.1300 h1         1 KS7       0.033700
     47 H14         -2.7170     0.8290     4.1450 h1         1 KS7       0.033700
     48 H15         -1.9520     2.2090     3.3610 h1         1 KS7       0.033700
     49 H16         -2.2380     0.6780    -1.2680 hc         1 KS7       0.056200
     50 H17         -1.6010    -0.6160    -0.2880 hc         1 KS7       0.056200
     51 H18         -3.8030    -1.2390     0.5140 h1         1 KS7       0.046450
     52 H19         -3.7590    -1.1490    -1.2400 h1         1 KS7       0.046450
     53 H20         -7.2560     1.5970     0.1180 ha         1 KS7       0.117000
     54 H21         -9.3840     0.6910    -0.5420 h4         1 KS7       0.010100
     55 H22         -8.1180    -2.9610    -3.2870 hc         1 KS7       0.048367
     56 H23         -6.8470    -3.6790    -2.3010 hc         1 KS7       0.048367
     57 H24         -8.5230    -3.6890    -1.7420 hc         1 KS7       0.048367
     58 H25         -1.4920    -0.8240     3.3920 h1         1 KS7       0.065700
     59 H26         -1.3870    -1.2480     1.6990 h1         1 KS7       0.065700
     60 H27          0.8030    -0.5240     2.4020 h1         1 KS7       0.068200
     61 H28          0.1740     0.9420     3.1550 h1         1 KS7       0.068200
     62 H29          8.2320    -1.2910    -0.5800 ha         1 KS7       0.121000
     63 H30          4.4190    -1.1510     1.3810 ha         1 KS7       0.149000
     64 H31          8.2270    -3.3020     0.5140 h1         1 KS7       0.040533
     65 H32          8.7980    -1.9770     1.5550 h1         1 KS7       0.040533
     66 H33          8.0890    -3.4320     2.2750 h1         1 KS7       0.040533
@<TRIPOS>BOND
     1     1    29 1   
     2     1    35 1   
     3     1    36 1   
     4     1    37 1   
     5     2     3 ar  
     6     2    28 ar  
     7     2    38 1   
     8     3     5 1   
     9     3    31 ar  
    10     4     6 1   
    11     4     8 1   
    12     4    24 1   
    13     5    26 2   
    14     5    27 1   
    15     6    25 1   
    16     6    27 2   
    17     7    11 1   
    18     7    13 1   
    19     7    19 1   
    20     8     9 1   
    21     8    39 1   
    22     8    40 1   
    23     9    10 1   
    24     9    16 1   
    25     9    18 1   
    26    10    11 1   
    27    10    41 1   
    28    10    42 1   
    29    11    43 1   
    30    11    44 1   
    31    12    15 ar  
    32    12    21 ar  
    33    13    14 ar  
    34    13    20 ar  
    35    14    15 ar  
    36    14    45 1   
    37    15    22 1   
    38    16    17 1   
    39    16    23 1   
    40    17    46 1   
    41    17    47 1   
    42    17    48 1   
    43    18    19 1   
    44    18    49 1   
    45    18    50 1   
    46    19    51 1   
    47    19    52 1   
    48    20    21 ar  
    49    20    53 1   
    50    21    54 1   
    51    22    55 1   
    52    22    56 1   
    53    22    57 1   
    54    23    24 1   
    55    23    58 1   
    56    23    59 1   
    57    24    60 1   
    58    24    61 1   
    59    25    26 1   
    60    28    29 1   
    61    28    30 ar  
    62    30    32 ar  
    63    30    62 1   
    64    31    32 ar  
    65    31    63 1   
    66    32    33 1   
    67    33    34 1   
    68    34    64 1   
    69    34    65 1   
    70    34    66 1   
@<TRIPOS>SUBSTRUCTURE
     1 KS7         1 TEMP              0 ****  ****    0 ROOT
