@<TRIPOS>MOLECULE
KS7
   66    70     1     0     0
SMALL
No Charge or Current Charge


@<TRIPOS>ATOM
      1 C4           9.1070    -0.1460    -2.7170 c3         1 KS7       0.149900
      2 C5           5.6010     0.3420    -1.5510 ca         1 KS7      -0.144000
      3 C6           4.7220     0.0420    -0.4840 ca         1 KS7      -0.075500
      4 N1           0.1940     0.7600     0.8430 nh         1 KS7      -0.774300
      5 C7           3.3160     0.5050    -0.5070 cc         1 KS7       0.646500
      6 C8           1.3800     0.7860     0.1190 cd         1 KS7       0.742900
      7 N2          -5.0930     0.1700    -0.0730 nh         1 KS7      -0.799400
      8 C9          -0.9680     1.6200     0.4470 c6         1 KS7       0.198800
      9 C10         -2.3630     1.0000     0.8420 c6         1 KS7       0.188200
     10 C11         -3.4950     2.0140     0.4770 c6         1 KS7      -0.078400
     11 C12         -4.9060     1.4230     0.7110 c6         1 KS7       0.225800
     12 N3          -8.9250    -1.1040    -1.3130 nb         1 KS7      -0.707000
     13 C13         -6.3790    -0.2500    -0.4740 ca         1 KS7       0.366000
     14 C14         -6.5330    -1.0400    -1.6170 ca         1 KS7      -0.242000
     15 C15         -7.8160    -1.4460    -2.0010 ca         1 KS7       0.383300
     16 N4          -2.3810     0.6340     2.3190 n3         1 KS7      -0.719600
     17 C21         -2.4090     1.7860     3.2610 c3         1 KS7       0.153100
     18 C20         -2.6300    -0.2540    -0.0570 c6         1 KS7      -0.078400
     19 C19         -4.0360    -0.8480     0.1850 c6         1 KS7       0.225800
     20 C18         -7.5280     0.1060     0.2410 ca         1 KS7      -0.253000
     21 C17         -8.7740    -0.3410    -0.2100 ca         1 KS7       0.371900
     22 C16         -8.0300    -2.2960    -3.2390 c3         1 KS7      -0.144400
     23 C22         -1.2550    -0.3030     2.6500 c6         1 KS7       0.153800
     24 C23          0.1500     0.2580     2.2550 c6         1 KS7       0.190800
     25 O2           1.4730     1.4110    -1.0860 os         1 KS7      -0.131700
     26 N            2.8060     1.2140    -1.5070 nd         1 KS7      -0.397300
     27 N5           2.4750     0.2100     0.5280 nc         1 KS7      -0.800000
     28 C3           6.9350    -0.0920    -1.5400 ca         1 KS7       0.166100
     29 O1           7.7250     0.2440    -2.6210 os         1 KS7      -0.339600
     30 C2           7.4220    -0.8420    -0.4510 ca         1 KS7      -0.271000
     31 C24          5.2300    -0.7120     0.6000 ca         1 KS7      -0.144000
     32 C1           6.5630    -1.1510     0.6210 ca         1 KS7       0.166100
     33 O            6.9780    -1.8810     1.7160 os         1 KS7      -0.339600
     34 C            8.3200    -2.3820     1.8460 c3         1 KS7       0.149900
     35 H1           9.6890     0.2690    -1.8850 h1         1 KS7       0.040533
     36 H2           9.2050    -1.2390    -2.7070 h1         1 KS7       0.040533
     37 H3           9.5420     0.2250    -3.6540 h1         1 KS7       0.040533
     38 H4           5.2540     0.9190    -2.4050 ha         1 KS7       0.149000
     39 H5          -0.8660     2.6070     0.9220 h1         1 KS7       0.064700
     40 H6          -0.9630     1.8010    -0.6380 h1         1 KS7       0.064700
     41 H7          -3.3860     2.9550     1.0300 hc         1 KS7       0.056200
     42 H8          -3.4090     2.2950    -0.5820 hc         1 KS7       0.056200
     43 H9          -5.6490     2.1760     0.4080 h1         1 KS7       0.046450
     44 H10         -5.0530     1.2270     1.7830 h1         1 KS7       0.046450
     45 H11         -5.6710    -1.3260    -2.2090 ha         1 KS7       0.117000
     46 H13         -3.3370     2.3620     3.1620 h1         1 KS7       0.033700
     47 H14         -2.3640     1.4330     4.3000 h1         1 KS7       0.033700
     48 H15         -1.5600     2.4630     3.0990 h1         1 KS7       0.033700
     49 H16         -2.5510     0.0280    -1.1150 hc         1 KS7       0.056200
     50 H17         -1.8700    -1.0320     0.0840 hc         1 KS7       0.056200
     51 H18         -4.1090    -1.2130     1.2210 h1         1 KS7       0.046450
     52 H19         -4.1640    -1.7190    -0.4730 h1         1 KS7       0.046450
     53 H20         -7.4710     0.7080     1.1400 ha         1 KS7       0.117000
     54 H21         -9.6840    -0.0820     0.3290 h4         1 KS7       0.010100
     55 H22         -8.3040    -1.6700    -4.0960 hc         1 KS7       0.048367
     56 H23         -7.1220    -2.8480    -3.5030 hc         1 KS7       0.048367
     57 H24         -8.8300    -3.0300    -3.0870 hc         1 KS7       0.048367
     58 H25         -1.2490    -0.5290     3.7260 h1         1 KS7       0.065700
     59 H26         -1.3950    -1.2720     2.1530 h1         1 KS7       0.065700
     60 H27          0.8880    -0.5400     2.4150 h1         1 KS7       0.068200
     61 H28          0.4130     1.0740     2.9430 h1         1 KS7       0.068200
     62 H29          8.4520    -1.1790    -0.4390 ha         1 KS7       0.121000
     63 H30          4.5910    -0.9660     1.4410 ha         1 KS7       0.149000
     64 H31          8.5620    -3.0670     1.0230 h1         1 KS7       0.040533
     65 H32          9.0460    -1.5590     1.8450 h1         1 KS7       0.040533
     66 H33          8.4310    -2.9320     2.7880 h1         1 KS7       0.040533
@<TRIPOS>BOND
     1     1    29 1   
     2     1    35 1   
     3     1    36 1   
     4     1    37 1   
     5     2     3 ar  
     6     2    28 ar  
     7     2    38 1   
     8     3     5 1   
     9     3    31 ar  
    10     4     6 1   
    11     4     8 1   
    12     4    24 1   
    13     5    26 2   
    14     5    27 1   
    15     6    25 1   
    16     6    27 2   
    17     7    11 1   
    18     7    13 1   
    19     7    19 1   
    20     8     9 1   
    21     8    39 1   
    22     8    40 1   
    23     9    10 1   
    24     9    16 1   
    25     9    18 1   
    26    10    11 1   
    27    10    41 1   
    28    10    42 1   
    29    11    43 1   
    30    11    44 1   
    31    12    15 ar  
    32    12    21 ar  
    33    13    14 ar  
    34    13    20 ar  
    35    14    15 ar  
    36    14    45 1   
    37    15    22 1   
    38    16    17 1   
    39    16    23 1   
    40    17    46 1   
    41    17    47 1   
    42    17    48 1   
    43    18    19 1   
    44    18    49 1   
    45    18    50 1   
    46    19    51 1   
    47    19    52 1   
    48    20    21 ar  
    49    20    53 1   
    50    21    54 1   
    51    22    55 1   
    52    22    56 1   
    53    22    57 1   
    54    23    24 1   
    55    23    58 1   
    56    23    59 1   
    57    24    60 1   
    58    24    61 1   
    59    25    26 1   
    60    28    29 1   
    61    28    30 ar  
    62    30    32 ar  
    63    30    62 1   
    64    31    32 ar  
    65    31    63 1   
    66    32    33 1   
    67    33    34 1   
    68    34    64 1   
    69    34    65 1   
    70    34    66 1   
@<TRIPOS>SUBSTRUCTURE
     1 KS7         1 TEMP              0 ****  ****    0 ROOT
