@<TRIPOS>MOLECULE
KS8
   62    64     1     0     0
SMALL
No Charge or Current Charge


@<TRIPOS>ATOM
      1 C04         19.6930   -64.0220   -21.3910 c3         1 KS8      -0.448400
      2 C05         19.8660   -62.5470   -20.9520 c3         1 KS8      -0.031400
      3 C06         21.1800   -62.2620   -20.1890 c3         1 KS8      -0.065400
      4 C07         22.4650   -62.4550   -21.0280 c3         1 KS8      -0.041100
      5 C08         23.7170   -62.0580   -20.2560 ca         1 KS8      -0.052300
      6 C09         24.2600   -60.7660   -20.3960 ca         1 KS8      -0.110500
      7 C10         25.4140   -60.4010   -19.6810 ca         1 KS8      -0.119000
      8 C11         26.0310   -61.3250   -18.8210 ca         1 KS8      -0.136000
      9 C12         25.4930   -62.6150   -18.6760 ca         1 KS8      -0.119000
     10 C13         24.3390   -62.9800   -19.3910 ca         1 KS8      -0.110500
     11 C14         18.2130   -66.1020   -22.7290 c3         1 KS8      -0.516400
     12 C15         17.8100   -66.8970   -21.5170 c          1 KS8       0.651100
     13 C18         15.4110   -67.1510   -22.3810 c5         1 KS8       0.123000
     14 C19         14.3090   -68.1590   -21.9380 c5         1 KS8      -0.082700
     15 C20         14.5060   -68.1630   -20.3960 c5         1 KS8      -0.067400
     16 C21         16.0550   -68.2190   -20.2440 c5         1 KS8      -0.016300
     17 C22         16.5470   -69.7110   -20.2110 c          1 KS8       0.715000
     18 C25         12.8630   -67.8100   -22.4290 c6         1 KS8      -0.049700
     19 C26         12.7580   -67.7220   -23.9830 c6         1 KS8      -0.064900
     20 C27         12.8710   -69.1110   -24.6670 c6         1 KS8      -0.075400
     21 C28         11.8130   -70.0960   -24.1100 c6         1 KS8      -0.067400
     22 C29         11.8870   -70.2030   -22.5670 c6         1 KS8      -0.075400
     23 C30         11.7820   -68.8040   -21.9030 c6         1 KS8      -0.064900
     24 N17         16.5020   -67.4160   -21.4180 n          1 KS8      -0.367800
     25 O01         16.9620   -64.2120   -21.2090 o          1 KS8      -0.837500
     26 O03         17.9200   -63.5300   -23.3970 o          1 KS8      -0.837500
     27 O16         18.6410   -67.1320   -20.6510 o          1 KS8      -0.675100
     28 P02         18.0770   -64.3930   -22.1860 p5         1 KS8       1.422000
     29 H042        19.7870   -64.6830   -20.5250 hc         1 KS8       0.053700
     30 H041        20.4640   -64.3000   -22.1160 hc         1 KS8       0.053700
     31 H051        19.8100   -61.8920   -21.8310 hc         1 KS8       0.039700
     32 H052        19.0250   -62.2690   -20.3030 hc         1 KS8       0.039700
     33 H062        21.2290   -62.9020   -19.2990 hc         1 KS8       0.024200
     34 H061        21.1520   -61.2270   -19.8280 hc         1 KS8       0.024200
     35 H072        22.3850   -61.8650   -21.9490 hc         1 KS8       0.053700
     36 H071        22.5440   -63.5030   -21.3410 hc         1 KS8       0.053700
     37 H091        23.7870   -60.0440   -21.0570 ha         1 KS8       0.117000
     38 H101        25.8290   -59.4020   -19.7920 ha         1 KS8       0.098000
     39 H111        26.9240   -61.0430   -18.2680 ha         1 KS8       0.093000
     40 H121        25.9690   -63.3310   -18.0100 ha         1 KS8       0.098000
     41 H131        23.9260   -63.9800   -19.2730 ha         1 KS8       0.117000
     42 H142        17.5410   -66.2040   -23.5830 hc         1 KS8       0.059700
     43 H141        19.2580   -66.2760   -23.0010 hc         1 KS8       0.059700
     44 H182        15.7150   -67.3410   -23.4180 h1         1 KS8       0.035700
     45 H181        15.0670   -66.1120   -22.2970 h1         1 KS8       0.035700
     46 H191        14.5480   -69.1500   -22.3380 hc         1 KS8       0.069700
     47 H201        14.1060   -67.2460   -19.9480 hc         1 KS8       0.031200
     48 H202        14.0110   -69.0060   -19.9000 hc         1 KS8       0.031200
     49 H211        16.3670   -67.7500   -19.3020 h1         1 KS8       0.065700
     50 H251        12.6180   -66.8160   -22.0280 hc         1 KS8       0.049700
     51 H262        13.5200   -67.0430   -24.3880 hc         1 KS8       0.029950
     52 H261        11.7910   -67.2730   -24.2510 hc         1 KS8       0.029950
     53 H271        13.8790   -69.5240   -24.5270 hc         1 KS8       0.038200
     54 H272        12.7350   -68.9990   -25.7510 hc         1 KS8       0.038200
     55 H281        10.8100   -69.7620   -24.4070 hc         1 KS8       0.016200
     56 H282        11.9550   -71.0890   -24.5600 hc         1 KS8       0.016200
     57 H292        11.0730   -70.8440   -22.2030 hc         1 KS8       0.038200
     58 H291        12.8210   -70.6970   -22.2690 hc         1 KS8       0.038200
     59 H302        10.7850   -68.3890   -22.1090 hc         1 KS8       0.029950
     60 H301        11.8380   -68.9020   -20.8120 hc         1 KS8       0.029950
     61 O23         16.8900   -70.2720   -21.2450 o          1 KS8      -0.744500
     62 O24         16.6460   -70.2670   -19.1260 o          1 KS8      -0.744500
@<TRIPOS>BOND
     1     1     2 1   
     2     1    28 1   
     3     1    29 1   
     4     1    30 1   
     5     2     3 1   
     6     2    31 1   
     7     2    32 1   
     8     3     4 1   
     9     3    33 1   
    10     3    34 1   
    11     4     5 1   
    12     4    35 1   
    13     4    36 1   
    14     5     6 ar  
    15     5    10 ar  
    16     6     7 ar  
    17     6    37 1   
    18     7     8 ar  
    19     7    38 1   
    20     8     9 ar  
    21     8    39 1   
    22     9    10 ar  
    23     9    40 1   
    24    10    41 1   
    25    11    12 1   
    26    11    28 1   
    27    11    42 1   
    28    11    43 1   
    29    12    24 1   
    30    12    27 2   
    31    13    14 1   
    32    13    24 1   
    33    13    44 1   
    34    13    45 1   
    35    14    15 1   
    36    14    18 1   
    37    14    46 1   
    38    15    16 1   
    39    15    47 1   
    40    15    48 1   
    41    16    17 1   
    42    16    24 1   
    43    16    49 1   
    44    17    61 1   
    45    17    62 1   
    46    18    19 1   
    47    18    23 1   
    48    18    50 1   
    49    19    20 1   
    50    19    51 1   
    51    19    52 1   
    52    20    21 1   
    53    20    53 1   
    54    20    54 1   
    55    21    22 1   
    56    21    55 1   
    57    21    56 1   
    58    22    23 1   
    59    22    57 1   
    60    22    58 1   
    61    23    59 1   
    62    23    60 1   
    63    25    28 1   
    64    26    28 1   
@<TRIPOS>SUBSTRUCTURE
     1 KS8         1 TEMP              0 ****  ****    0 ROOT
