@<TRIPOS>MOLECULE
KS8
   62    64     1     0     0
SMALL
abcg2


@<TRIPOS>ATOM
      1 C04         19.6460   -64.0520   -21.4480 c3         1 KS8      -0.448400
      2 C05         19.7530   -62.5870   -21.0200 c3         1 KS8      -0.031400
      3 C06         21.0300   -62.2670   -20.2400 c3         1 KS8      -0.065400
      4 C07         22.3070   -62.3370   -21.0910 c3         1 KS8      -0.041100
      5 C08         23.5470   -62.0260   -20.2940 ca         1 KS8      -0.052300
      6 C09         23.9510   -60.7060   -20.0830 ca         1 KS8      -0.110500
      7 C10         25.0730   -60.4150   -19.3130 ca         1 KS8      -0.119000
      8 C11         25.8120   -61.4450   -18.7380 ca         1 KS8      -0.136000
      9 C12         25.4210   -62.7650   -18.9420 ca         1 KS8      -0.119000
     10 C13         24.2980   -63.0490   -19.7130 ca         1 KS8      -0.110500
     11 C14         18.2800   -66.2510   -22.7130 c3         1 KS8      -0.516400
     12 C15         17.9030   -67.0690   -21.5100 c          1 KS8       0.651100
     13 C18         15.6050   -67.3800   -22.4640 c5         1 KS8       0.123000
     14 C19         14.4330   -68.2210   -21.9460 c5         1 KS8      -0.082700
     15 C20         14.6440   -68.1940   -20.4270 c5         1 KS8      -0.067400
     16 C21         16.1690   -68.2630   -20.2670 c5         1 KS8      -0.016300
     17 C22         16.6530   -69.7350   -20.1680 c          1 KS8       0.715000
     18 C25         13.0640   -67.7160   -22.4140 c6         1 KS8      -0.049700
     19 C26         12.9420   -67.6810   -23.9480 c6         1 KS8      -0.064900
     20 C27         12.8630   -69.0800   -24.5660 c6         1 KS8      -0.075400
     21 C28         11.7190   -69.8940   -23.9560 c6         1 KS8      -0.067400
     22 C29         11.8210   -69.9460   -22.4290 c6         1 KS8      -0.075400
     23 C30         11.9040   -68.5390   -21.8310 c6         1 KS8      -0.064900
     24 N17         16.6480   -67.5450   -21.4450 n          1 KS8      -0.367800
     25 O01         16.9130   -64.1210   -21.6170 o          1 KS8      -0.837500
     26 O03         18.2790   -63.7650   -23.7940 o          1 KS8      -0.837500
     27 O16         18.7170   -67.2630   -20.5910 o          1 KS8      -0.675100
     28 P02         18.1490   -64.4160   -22.4350 p5         1 KS8       1.422000
     29 H042        19.6390   -64.7010   -20.5680 hc         1 KS8       0.053700
     30 H041        20.5060   -64.3450   -22.0550 hc         1 KS8       0.053700
     31 H051        19.7020   -61.9400   -21.9020 hc         1 KS8       0.039700
     32 H052        18.8880   -62.3350   -20.4010 hc         1 KS8       0.039700
     33 H062        21.1260   -62.9560   -19.3940 hc         1 KS8       0.024200
     34 H061        20.9530   -61.2610   -19.8150 hc         1 KS8       0.024200
     35 H072        22.2130   -61.6300   -21.9200 hc         1 KS8       0.053700
     36 H071        22.4030   -63.3330   -21.5280 hc         1 KS8       0.053700
     37 H091        23.3810   -59.8990   -20.5300 ha         1 KS8       0.117000
     38 H101        25.3720   -59.3840   -19.1640 ha         1 KS8       0.098000
     39 H111        26.6870   -61.2210   -18.1410 ha         1 KS8       0.093000
     40 H121        25.9920   -63.5740   -18.5030 ha         1 KS8       0.098000
     41 H131        24.0000   -64.0800   -19.8700 ha         1 KS8       0.117000
     42 H142        17.6620   -66.4680   -23.5820 hc         1 KS8       0.059700
     43 H141        19.3190   -66.4650   -22.9680 hc         1 KS8       0.059700
     44 H182        15.9540   -67.7190   -23.4390 h1         1 KS8       0.035700
     45 H181        15.3240   -66.3260   -22.5500 h1         1 KS8       0.035700
     46 H191        14.5830   -69.2470   -22.2840 hc         1 KS8       0.069700
     47 H201        14.2690   -67.2520   -20.0170 hc         1 KS8       0.031200
     48 H202        14.1480   -69.0110   -19.9060 hc         1 KS8       0.031200
     49 H211        16.5070   -67.7510   -19.3670 h1         1 KS8       0.065700
     50 H251        12.9680   -66.6870   -22.0460 hc         1 KS8       0.049700
     51 H262        13.7730   -67.1210   -24.3840 hc         1 KS8       0.029950
     52 H261        12.0290   -67.1330   -24.2060 hc         1 KS8       0.029950
     53 H271        13.8080   -69.6100   -24.4090 hc         1 KS8       0.038200
     54 H272        12.7300   -68.9980   -25.6480 hc         1 KS8       0.038200
     55 H281        10.7650   -69.4320   -24.2320 hc         1 KS8       0.016200
     56 H282        11.7110   -70.9060   -24.3700 hc         1 KS8       0.016200
     57 H292        10.9600   -70.4740   -22.0110 hc         1 KS8       0.038200
     58 H291        12.7070   -70.5230   -22.1440 hc         1 KS8       0.038200
     59 H302        10.9690   -68.0110   -22.0440 hc         1 KS8       0.029950
     60 H301        11.9880   -68.5940   -20.7430 hc         1 KS8       0.029950
     61 O23         17.0530   -70.3090   -21.2090 o          1 KS8      -0.744500
     62 O24         16.5570   -70.2430   -19.0210 o          1 KS8      -0.744500
@<TRIPOS>BOND
     1     1     2 1   
     2     1    28 1   
     3     1    29 1   
     4     1    30 1   
     5     2     3 1   
     6     2    31 1   
     7     2    32 1   
     8     3     4 1   
     9     3    33 1   
    10     3    34 1   
    11     4     5 1   
    12     4    35 1   
    13     4    36 1   
    14     5     6 ar  
    15     5    10 ar  
    16     6     7 ar  
    17     6    37 1   
    18     7     8 ar  
    19     7    38 1   
    20     8     9 ar  
    21     8    39 1   
    22     9    10 ar  
    23     9    40 1   
    24    10    41 1   
    25    11    12 1   
    26    11    28 1   
    27    11    42 1   
    28    11    43 1   
    29    12    24 1   
    30    12    27 2   
    31    13    14 1   
    32    13    24 1   
    33    13    44 1   
    34    13    45 1   
    35    14    15 1   
    36    14    18 1   
    37    14    46 1   
    38    15    16 1   
    39    15    47 1   
    40    15    48 1   
    41    16    17 1   
    42    16    24 1   
    43    16    49 1   
    44    17    61 1   
    45    17    62 1   
    46    18    19 1   
    47    18    23 1   
    48    18    50 1   
    49    19    20 1   
    50    19    51 1   
    51    19    52 1   
    52    20    21 1   
    53    20    53 1   
    54    20    54 1   
    55    21    22 1   
    56    21    55 1   
    57    21    56 1   
    58    22    23 1   
    59    22    57 1   
    60    22    58 1   
    61    23    59 1   
    62    23    60 1   
    63    25    28 1   
    64    26    28 1   
@<TRIPOS>SUBSTRUCTURE
     1 KS8         1 TEMP              0 ****  ****    0 ROOT
