@<TRIPOS>MOLECULE
KS9
   40    40     1     0     0
SMALL
bcc


@<TRIPOS>ATOM
      1 C15         22.3460   -86.1780    52.6420 c          1 KS9       0.760100
      2 C17         24.4790   -85.2030    52.9330 c3         1 KS9       0.207700
      3 C20         26.6130   -83.5890    55.6200 ca         1 KS9      -0.132500
      4 C21         26.2040   -82.2660    55.5400 ca         1 KS9      -0.115000
      5 C22         25.2390   -81.8960    54.6100 ca         1 KS9      -0.132500
      6 C02         18.4590   -84.8730    53.0730 c3         1 KS9      -0.073400
      7 C03         19.6380   -84.4220    53.9410 c3         1 KS9      -0.065700
      8 C04         20.5650   -85.5900    54.3080 c3         1 KS9       0.018700
      9 C05         19.9470   -86.5790    55.2990 c          1 KS9       0.560100
     10 C06         20.4810   -87.9840    55.3000 c3         1 KS9      -0.195100
     11 C18         25.0930   -84.1790    53.8400 ca         1 KS9      -0.103300
     12 C19         26.0560   -84.5420    54.7750 ca         1 KS9      -0.104500
     13 C23         24.6890   -82.8480    53.7650 ca         1 KS9      -0.104500
     14 C25         20.4330   -83.3030    53.2740 c3         1 KS9      -0.088100
     15 N14         21.0990   -86.2720    53.1520 ns         1 KS9      -0.567900
     16 O13         19.1030   -86.2130    56.0840 o          1 KS9      -0.514100
     17 O16         23.1450   -85.4250    53.4000 os         1 KS9      -0.434900
     18 O24         22.7010   -86.7220    51.6170 o          1 KS9      -0.590000
     19 H1          25.0480   -86.1350    52.9550 h1         1 KS9       0.057200
     20 H2          24.4590   -84.8420    51.9030 h1         1 KS9       0.057200
     21 H4          26.6360   -81.5230    56.1980 ha         1 KS9       0.132000
     22 H5          24.9190   -80.8650    54.5410 ha         1 KS9       0.133000
     23 H6          16.5330   -84.2020    52.3460 hc         1 KS9       0.034367
     24 H7          17.0010   -83.4890    53.8860 hc         1 KS9       0.034367
     25 H8          17.7390   -82.9280    52.3890 hc         1 KS9       0.034367
     26 H9          18.0000   -85.7680    53.5030 hc         1 KS9       0.037700
     27 H10         18.8240   -85.1630    52.0820 hc         1 KS9       0.037700
     28 H11         19.2380   -84.0350    54.8830 hc         1 KS9       0.074700
     29 H12         21.4130   -85.1820    54.8690 h1         1 KS9       0.097700
     30 H13         20.1490   -88.5160    56.1880 hc         1 KS9       0.064700
     31 H14         20.1240   -88.5210    54.4190 hc         1 KS9       0.064700
     32 H15         21.5710   -87.9950    55.2520 hc         1 KS9       0.064700
     33 H16         26.3770   -85.5750    54.8420 ha         1 KS9       0.132500
     34 H17         23.9440   -82.5520    53.0350 ha         1 KS9       0.132500
     35 H18         21.2700   -82.9810    53.8960 hc         1 KS9       0.037367
     36 H19         20.8350   -83.6180    52.3090 hc         1 KS9       0.037367
     37 H20         19.8100   -82.4270    53.0970 hc         1 KS9       0.037367
     38 H21         20.4570   -86.8070    52.5850 hn         1 KS9       0.329500
     39 H3          27.3650   -83.8830    56.3400 ha         1 KS9       0.133000
     40 C01         17.3780   -83.8120    52.9140 c3         1 KS9      -0.088100
@<TRIPOS>BOND
     1     1    15 1   
     2     1    17 1   
     3     1    18 2   
     4     2    11 1   
     5     2    17 1   
     6     2    19 1   
     7     2    20 1   
     8     3     4 ar  
     9     3    12 ar  
    10     3    39 1   
    11     4     5 ar  
    12     4    21 1   
    13     5    13 ar  
    14     5    22 1   
    15     6     7 1   
    16     6    26 1   
    17     6    27 1   
    18     6    40 1   
    19     7     8 1   
    20     7    14 1   
    21     7    28 1   
    22     8     9 1   
    23     8    15 1   
    24     8    29 1   
    25     9    10 1   
    26     9    16 2   
    27    10    30 1   
    28    10    31 1   
    29    10    32 1   
    30    11    12 ar  
    31    11    13 ar  
    32    12    33 1   
    33    13    34 1   
    34    14    35 1   
    35    14    36 1   
    36    14    37 1   
    37    15    38 1   
    38    23    40 1   
    39    24    40 1   
    40    25    40 1   
@<TRIPOS>SUBSTRUCTURE
     1 KS9         1 TEMP              0 ****  ****    0 ROOT
