@<TRIPOS>MOLECULE
KS9
   40    40     1     0     0
SMALL
No Charge or Current Charge


@<TRIPOS>ATOM
      1 C15         22.2310   -86.2850    52.5190 c          1 KS9       0.644100
      2 C17         24.3110   -85.1130    52.7290 c3         1 KS9       0.230900
      3 C20         26.5470   -83.6030    55.4600 ca         1 KS9      -0.114500
      4 C21         26.1430   -82.2570    55.4390 ca         1 KS9      -0.097000
      5 C22         25.1470   -81.8380    54.5410 ca         1 KS9      -0.114500
      6 C02         18.5960   -84.7370    52.9130 c3         1 KS9      -0.073400
      7 C03         19.6790   -84.5220    54.0150 c3         1 KS9      -0.065700
      8 C04         20.4960   -85.8200    54.3380 c3         1 KS9       0.018700
      9 C05         19.7350   -86.8570    55.2200 c          1 KS9       0.560100
     10 C06         20.5840   -87.9900    55.8030 c3         1 KS9      -0.195100
     11 C18         24.9580   -84.1140    53.6780 ca         1 KS9      -0.103300
     12 C19         25.9560   -84.5290    54.5830 ca         1 KS9      -0.086500
     13 C23         24.5560   -82.7630    53.6630 ca         1 KS9      -0.086500
     14 C25         20.6180   -83.3360    53.6760 c3         1 KS9      -0.088100
     15 N14         21.0060   -86.4830    53.1070 ns         1 KS9      -0.500900
     16 O13         18.5360   -86.7890    55.4630 o          1 KS9      -0.514100
     17 O16         23.0120   -85.4380    53.2450 os         1 KS9      -0.458100
     18 O24         22.5560   -86.8230    51.4740 o          1 KS9      -0.541000
     19 H1          24.9350   -86.0130    52.6480 h1         1 KS9       0.057200
     20 H2          24.2310   -84.6640    51.7300 h1         1 KS9       0.057200
     21 H4          26.6000   -81.5400    56.1190 ha         1 KS9       0.114000
     22 H5          24.8320   -80.7970    54.5250 ha         1 KS9       0.115000
     23 H6          16.8250   -83.8270    52.0250 hc         1 KS9       0.034367
     24 H7          17.1230   -83.3230    53.7010 hc         1 KS9       0.034367
     25 H8          18.1140   -82.6640    52.3770 hc         1 KS9       0.034367
     26 H9          18.0130   -85.6370    53.1420 hc         1 KS9       0.037700
     27 H10         19.0820   -84.9220    51.9470 hc         1 KS9       0.037700
     28 H11         19.1580   -84.2370    54.9390 hc         1 KS9       0.074700
     29 H12         21.3500   -85.5280    54.9630 h1         1 KS9       0.097700
     30 H13         20.0100   -88.6530    56.4610 hc         1 KS9       0.064700
     31 H14         21.0490   -88.5470    54.9820 hc         1 KS9       0.064700
     32 H15         21.4540   -87.5610    56.3130 hc         1 KS9       0.064700
     33 H16         26.2720   -85.5700    54.6090 ha         1 KS9       0.114500
     34 H17         23.7830   -82.4330    52.9730 ha         1 KS9       0.114500
     35 H18         21.4040   -83.2310    54.4340 hc         1 KS9       0.037367
     36 H19         21.1000   -83.4810    52.7010 hc         1 KS9       0.037367
     37 H20         20.0660   -82.3900    53.6460 hc         1 KS9       0.037367
     38 H21         20.3840   -87.1000    52.5980 hn         1 KS9       0.329500
     39 H3          27.3170   -83.9280    56.1560 ha         1 KS9       0.115000
     40 C01         17.6070   -83.5630    52.7470 c3         1 KS9      -0.088100
@<TRIPOS>BOND
     1     1    15 1   
     2     1    17 1   
     3     1    18 2   
     4     2    11 1   
     5     2    17 1   
     6     2    19 1   
     7     2    20 1   
     8     3     4 ar  
     9     3    12 ar  
    10     3    39 1   
    11     4     5 ar  
    12     4    21 1   
    13     5    13 ar  
    14     5    22 1   
    15     6     7 1   
    16     6    26 1   
    17     6    27 1   
    18     6    40 1   
    19     7     8 1   
    20     7    14 1   
    21     7    28 1   
    22     8     9 1   
    23     8    15 1   
    24     8    29 1   
    25     9    10 1   
    26     9    16 2   
    27    10    30 1   
    28    10    31 1   
    29    10    32 1   
    30    11    12 ar  
    31    11    13 ar  
    32    12    33 1   
    33    13    34 1   
    34    14    35 1   
    35    14    36 1   
    36    14    37 1   
    37    15    38 1   
    38    23    40 1   
    39    24    40 1   
    40    25    40 1   
@<TRIPOS>SUBSTRUCTURE
     1 KS9         1 TEMP              0 ****  ****    0 ROOT
