@<TRIPOS>MOLECULE
KSA
   56    63     1     0     0
SMALL
No Charge or Current Charge


@<TRIPOS>ATOM
      1 O3          11.2100    11.0220   136.7630 o          1 KSA      -0.441000
      2 C22         12.1260    10.4650   137.3570 c          1 KSA       0.599100
      3 O5          11.9890     9.2150   137.9190 os         1 KSA      -0.450100
      4 C26         10.7430     8.5170   137.7430 c3         1 KSA       0.153900
      5 C1          13.5470    11.1100   137.6650 c5         1 KSA       0.098000
      6 O4          13.4940    12.5520   137.5090 oh         1 KSA      -0.672000
      7 C2          14.6570    10.4100   136.7810 c5         1 KSA       0.309000
      8 O1          14.8410     9.1660   137.4960 os         1 KSA      -0.431000
      9 C25         14.1910     9.9800   135.3620 c3         1 KSA      -0.095100
     10 N1          15.9550    11.1640   136.7170 na         1 KSA      -0.147600
     11 C3          17.0710    10.8880   137.5310 ca         1 KSA       0.004800
     12 C4          17.1880    10.1300   138.6990 ca         1 KSA      -0.037200
     13 N2          16.2010     9.4420   139.3930 na         1 KSA      -0.120600
     14 C24         14.8180     9.4040   138.9250 c5         1 KSA       0.321300
     15 C27         14.0260    10.7400   139.1130 c5         1 KSA      -0.148400
     16 C17         16.7290     8.8590   140.5600 ca         1 KSA       0.013800
     17 C18         16.1060     8.0830   141.5460 ca         1 KSA      -0.152000
     18 C19         16.9010     7.6280   142.6170 ca         1 KSA      -0.072000
     19 C20         18.2770     7.9510   142.6780 ca         1 KSA      -0.150000
     20 C21         18.8840     8.7380   141.6730 ca         1 KSA      -0.032000
     21 C16         18.0900     9.1980   140.6010 cp         1 KSA      -0.084000
     22 C5          18.3830    10.0190   139.4200 cp         1 KSA       0.011000
     23 C6          19.4970    10.7290   138.8890 ca         1 KSA      -0.131600
     24 C15         20.8740    10.9040   139.4130 c          1 KSA       0.584600
     25 O2          21.3800    10.4050   140.4040 o          1 KSA      -0.560000
     26 C7          19.3780    11.4910   137.7430 ca         1 KSA      -0.060300
     27 C23         20.6520    12.2250   137.4360 c5         1 KSA       0.151300
     28 N3          21.5270    11.7730   138.5490 ns         1 KSA      -0.523900
     29 C8          18.1580    11.6020   137.0330 cp         1 KSA      -0.058000
     30 C9          17.6850    12.3990   135.9170 cp         1 KSA      -0.078000
     31 C10         16.3120    12.1610   135.7650 ca         1 KSA       0.003800
     32 C11         15.5400    12.8830   134.8390 ca         1 KSA      -0.128000
     33 C14         18.3430    13.3440   135.1060 ca         1 KSA      -0.062000
     34 C13         17.5880    14.0480   134.1450 ca         1 KSA      -0.135000
     35 C12         16.1970    13.8250   134.0200 ca         1 KSA      -0.084000
     36 H261        10.5330     8.3520   136.6780 h1         1 KSA       0.054700
     37 H262        10.7800     7.5380   138.2370 h1         1 KSA       0.054700
     38 H263         9.9100     9.0850   138.1770 h1         1 KSA       0.054700
     39 HO4         14.4170    12.8920   137.5600 ho         1 KSA       0.529000
     40 H251        13.6120    10.7610   134.8610 hc         1 KSA       0.068700
     41 H252        15.0460     9.7280   134.7240 hc         1 KSA       0.068700
     42 H253        13.5510     9.0910   135.4040 hc         1 KSA       0.068700
     43 H24         14.3290     8.5650   139.4340 h2         1 KSA       0.107700
     44 H271        13.1950    10.6270   139.8180 hc         1 KSA       0.084700
     45 H272        14.6770    11.5150   139.5340 hc         1 KSA       0.084700
     46 H18         15.0480     7.8380   141.4930 ha         1 KSA       0.114000
     47 H19         16.4530     7.0210   143.4020 ha         1 KSA       0.112000
     48 H20         18.8770     7.5900   143.5100 ha         1 KSA       0.118000
     49 H21         19.9400     8.9720   141.7390 ha         1 KSA       0.152000
     50 H231        20.4960    13.3120   137.4500 h1         1 KSA       0.060200
     51 H232        21.0480    11.9380   136.4530 h1         1 KSA       0.060200
     52 HN3         22.4900    12.0370   138.7210 hn         1 KSA       0.334500
     53 H11         14.4670    12.7480   134.7520 ha         1 KSA       0.128000
     54 H14         19.4060    13.5400   135.2210 ha         1 KSA       0.114000
     55 H13         18.0760    14.7830   133.5090 ha         1 KSA       0.117000
     56 H12         15.6250    14.3940   133.2890 ha         1 KSA       0.116000
@<TRIPOS>BOND
     1     1     2 2   
     2     2     3 1   
     3     2     5 1   
     4     3     4 1   
     5     4    36 1   
     6     4    37 1   
     7     4    38 1   
     8     5     6 1   
     9     5     7 1   
    10     5    15 1   
    11     6    39 1   
    12     7     8 1   
    13     7     9 1   
    14     7    10 1   
    15     8    14 1   
    16     9    40 1   
    17     9    41 1   
    18     9    42 1   
    19    10    11 1   
    20    10    31 1   
    21    11    12 ar  
    22    11    29 ar  
    23    12    13 1   
    24    12    22 ar  
    25    13    14 1   
    26    13    16 1   
    27    14    15 1   
    28    14    43 1   
    29    15    44 1   
    30    15    45 1   
    31    16    17 ar  
    32    16    21 ar  
    33    17    18 ar  
    34    17    46 1   
    35    18    19 ar  
    36    18    47 1   
    37    19    20 ar  
    38    19    48 1   
    39    20    21 ar  
    40    20    49 1   
    41    21    22 1   
    42    22    23 ar  
    43    23    24 1   
    44    23    26 ar  
    45    24    25 2   
    46    24    28 1   
    47    26    27 1   
    48    26    29 ar  
    49    27    28 1   
    50    27    50 1   
    51    27    51 1   
    52    28    52 1   
    53    29    30 1   
    54    30    31 ar  
    55    30    33 ar  
    56    31    32 ar  
    57    32    35 ar  
    58    32    53 1   
    59    33    34 ar  
    60    33    54 1   
    61    34    35 ar  
    62    34    55 1   
    63    35    56 1   
@<TRIPOS>SUBSTRUCTURE
     1 KSA         1 TEMP              0 ****  ****    0 ROOT
