@<TRIPOS>MOLECULE
KSA
   56    63     1     0     0
SMALL
abcg2


@<TRIPOS>ATOM
      1 O3          11.3800    11.2580   136.7970 o          1 KSA      -0.441000
      2 C22         12.1910    10.6080   137.4110 c          1 KSA       0.599100
      3 O5          11.9790     9.3750   137.8660 os         1 KSA      -0.450100
      4 C26         10.7010     8.7780   137.5570 c3         1 KSA       0.153900
      5 C1          13.6080    11.0850   137.7390 c5         1 KSA       0.098000
      6 O4          13.6010    12.4720   137.5360 oh         1 KSA      -0.672000
      7 C2          14.6490    10.3280   136.8160 c5         1 KSA       0.309000
      8 O1          14.9010     9.1310   137.5140 os         1 KSA      -0.431000
      9 C25         14.1450     9.9430   135.4370 c3         1 KSA      -0.095100
     10 N1          15.9000    11.1200   136.7540 na         1 KSA      -0.147600
     11 C3          16.9960    10.9170   137.5940 ca         1 KSA       0.004800
     12 C4          17.1380    10.1540   138.7570 ca         1 KSA      -0.037200
     13 N2          16.1940     9.3870   139.4060 na         1 KSA      -0.120600
     14 C24         14.8380     9.3330   138.9300 c5         1 KSA       0.321300
     15 C27         14.0610    10.6460   139.1430 c5         1 KSA      -0.148400
     16 C17         16.7640     8.8240   140.5340 ca         1 KSA       0.013800
     17 C18         16.1950     7.9970   141.5000 ca         1 KSA      -0.152000
     18 C19         17.0100     7.5650   142.5370 ca         1 KSA      -0.072000
     19 C20         18.3570     7.9510   142.6170 ca         1 KSA      -0.150000
     20 C21         18.9190     8.7820   141.6590 ca         1 KSA      -0.032000
     21 C16         18.1250     9.2340   140.6010 cp         1 KSA      -0.084000
     22 C5          18.3640    10.0930   139.4610 cp         1 KSA       0.011000
     23 C6          19.4540    10.8310   138.9580 ca         1 KSA      -0.131600
     24 C15         20.8500    10.9610   139.4390 c          1 KSA       0.584600
     25 O2          21.3880    10.4150   140.4040 o          1 KSA      -0.560000
     26 C7          19.3090    11.6170   137.8220 ca         1 KSA      -0.060300
     27 C23         20.6040    12.3120   137.5180 c5         1 KSA       0.151300
     28 N3          21.4610    11.8240   138.5830 ns         1 KSA      -0.523900
     29 C8          18.0930    11.6810   137.1360 cp         1 KSA      -0.058000
     30 C9          17.6350    12.4090   135.9810 cp         1 KSA      -0.078000
     31 C10         16.2740    12.0600   135.7790 ca         1 KSA       0.003800
     32 C11         15.5320    12.6740   134.7710 ca         1 KSA      -0.128000
     33 C14         18.2570    13.3340   135.1410 ca         1 KSA      -0.062000
     34 C13         17.5230    13.9150   134.1190 ca         1 KSA      -0.135000
     35 C12         16.1720    13.5910   133.9480 ca         1 KSA      -0.084000
     36 H261        10.5760     8.7080   136.4770 h1         1 KSA       0.054700
     37 H262        10.7290     7.7900   138.0060 h1         1 KSA       0.054700
     38 H263         9.8980     9.3740   137.9860 h1         1 KSA       0.054700
     39 HO4         14.4680    12.8230   137.7780 ho         1 KSA       0.529000
     40 H251        13.6290    10.7610   134.9460 hc         1 KSA       0.068700
     41 H252        14.9720     9.6120   134.8110 hc         1 KSA       0.068700
     42 H253        13.4430     9.1200   135.5540 hc         1 KSA       0.068700
     43 H24         14.3410     8.4730   139.3680 h2         1 KSA       0.107700
     44 H271        13.2270    10.5080   139.8250 hc         1 KSA       0.084700
     45 H272        14.7160    11.4100   139.5590 hc         1 KSA       0.084700
     46 H18         15.1550     7.7020   141.4510 ha         1 KSA       0.114000
     47 H19         16.5940     6.9200   143.3000 ha         1 KSA       0.112000
     48 H20         18.9620     7.5970   143.4420 ha         1 KSA       0.118000
     49 H21         19.9540     9.0870   141.7150 ha         1 KSA       0.152000
     50 H231        20.5040    13.4010   137.5500 h1         1 KSA       0.060200
     51 H232        20.9960    12.0410   136.5330 h1         1 KSA       0.060200
     52 HN3         22.4300    12.0790   138.6780 hn         1 KSA       0.334500
     53 H11         14.4820    12.4800   134.6320 ha         1 KSA       0.128000
     54 H14         19.2950    13.6010   135.2910 ha         1 KSA       0.114000
     55 H13         17.9900    14.6360   133.4600 ha         1 KSA       0.117000
     56 H12         15.6030    14.0720   133.1630 ha         1 KSA       0.116000
@<TRIPOS>BOND
     1     1     2 2   
     2     2     3 1   
     3     2     5 1   
     4     3     4 1   
     5     4    36 1   
     6     4    37 1   
     7     4    38 1   
     8     5     6 1   
     9     5     7 1   
    10     5    15 1   
    11     6    39 1   
    12     7     8 1   
    13     7     9 1   
    14     7    10 1   
    15     8    14 1   
    16     9    40 1   
    17     9    41 1   
    18     9    42 1   
    19    10    11 1   
    20    10    31 1   
    21    11    12 ar  
    22    11    29 ar  
    23    12    13 1   
    24    12    22 ar  
    25    13    14 1   
    26    13    16 1   
    27    14    15 1   
    28    14    43 1   
    29    15    44 1   
    30    15    45 1   
    31    16    17 ar  
    32    16    21 ar  
    33    17    18 ar  
    34    17    46 1   
    35    18    19 ar  
    36    18    47 1   
    37    19    20 ar  
    38    19    48 1   
    39    20    21 ar  
    40    20    49 1   
    41    21    22 1   
    42    22    23 ar  
    43    23    24 1   
    44    23    26 ar  
    45    24    25 2   
    46    24    28 1   
    47    26    27 1   
    48    26    29 ar  
    49    27    28 1   
    50    27    50 1   
    51    27    51 1   
    52    28    52 1   
    53    29    30 1   
    54    30    31 ar  
    55    30    33 ar  
    56    31    32 ar  
    57    32    35 ar  
    58    32    53 1   
    59    33    34 ar  
    60    33    54 1   
    61    34    35 ar  
    62    34    55 1   
    63    35    56 1   
@<TRIPOS>SUBSTRUCTURE
     1 KSA         1 TEMP              0 ****  ****    0 ROOT
