@<TRIPOS>MOLECULE
KSC
   49    52     1     0     0
SMALL
No Charge or Current Charge


@<TRIPOS>ATOM
      1 C1           0.1590     1.2950     0.1800 cc         1 KSC       0.684500
      2 N2          -0.2840     0.0860    -0.0610 nd         1 KSC      -0.689100
      3 N3          -1.6630     0.3180    -0.1210 na         1 KSC       0.065900
      4 C4          -1.9640     1.6570     0.0770 cd         1 KSC       0.521500
      5 C5          -0.7960     2.3110     0.2920 cc         1 KSC      -0.459800
      6 C6          -2.6990    -0.5880    -0.3430 cc         1 KSC       0.417000
      7 C7          -3.9440     0.0070    -0.3190 cd         1 KSC      -0.346000
      8 C8          -4.1410     1.3600    -0.0970 cc         1 KSC       0.453300
      9 N9          -3.1960     2.2700     0.1180 nd         1 KSC      -0.694000
     10 C10         -5.5500     1.8830    -0.0910 c3         1 KSC      -0.151400
     11 N11         -2.4330    -1.9200    -0.5530 nu         1 KSC      -0.953200
     12 C12         -3.4030    -3.0140    -0.6180 c3         1 KSC       0.262800
     13 C13         -2.6740    -4.3360    -0.7980 cx         1 KSC      -0.159700
     14 C14         -3.3360    -5.6410    -0.4130 cx         1 KSC      -0.121400
     15 C15         -2.1670    -5.1210     0.3920 cx         1 KSC      -0.121400
     16 N16          1.4910     1.5340     0.1960 nu         1 KSC      -0.896200
     17 C17          2.5800     0.6800     0.3740 ca         1 KSC       0.279000
     18 C18          2.5360    -0.3660     1.3140 ca         1 KSC      -0.117500
     19 C19          3.6490    -1.2080     1.4950 ca         1 KSC      -0.142000
     20 C20          4.8190    -1.0100     0.7440 ca         1 KSC       0.110100
     21 C21          4.8710     0.0450    -0.1940 ca         1 KSC      -0.142000
     22 C22          3.7540     0.8850    -0.3710 ca         1 KSC      -0.117500
     23 C23         -0.6160     3.7330     0.5900 c          1 KSC       0.648300
     24 O24         -1.4810     4.5830     0.4930 o          1 KSC      -0.582100
     25 N25          0.6010     4.1070     1.0270 nt         1 KSC      -0.606000
     26 O26          5.8790    -1.8650     0.9630 os         1 KSC      -0.342100
     27 C27          7.1210    -1.7470     0.2460 c3         1 KSC       0.149900
     28 H7          -4.8160    -0.6140    -0.4810 ha         1 KSC       0.136000
     29 H10         -6.1360     1.3970     0.6970 hc         1 KSC       0.058033
     30 H10A        -5.5890     2.9650     0.0820 hc         1 KSC       0.058033
     31 H10B        -6.0390     1.6810    -1.0510 hc         1 KSC       0.058033
     32 HN11        -1.4420    -2.1570    -0.4660 hn         1 KSC       0.531000
     33 H12         -4.0050    -3.0420     0.3010 h1         1 KSC       0.051700
     34 H12A        -4.0870    -2.8620    -1.4650 h1         1 KSC       0.051700
     35 H13         -2.0660    -4.3550    -1.7000 hc         1 KSC       0.092700
     36 H14         -4.3220    -5.6010     0.0450 hc         1 KSC       0.077450
     37 H14A        -3.1670    -6.5040    -1.0530 hc         1 KSC       0.077450
     38 H15         -1.2140    -5.6340     0.2920 hc         1 KSC       0.077450
     39 H15A        -2.3700    -4.7310     1.3870 hc         1 KSC       0.077450
     40 HN16         1.6990     2.3560    -0.3620 hn         1 KSC       0.510000
     41 H18          1.6400    -0.5250     1.9070 ha         1 KSC       0.124000
     42 H19          3.6040    -2.0150     2.2220 ha         1 KSC       0.120500
     43 H21          5.7610     0.2290    -0.7890 ha         1 KSC       0.120500
     44 H22          3.8050     1.6950    -1.0950 ha         1 KSC       0.124000
     45 HN25         1.2940     3.4030     1.2340 hn         1 KSC       0.294000
     46 HN2A         0.7600     5.0740     1.2690 hn         1 KSC       0.294000
     47 H27          7.5860    -0.7700     0.4290 h1         1 KSC       0.039033
     48 H27A         7.8240    -2.5240     0.5730 h1         1 KSC       0.039033
     49 H27B         6.9610    -1.8650    -0.8330 h1         1 KSC       0.039033
@<TRIPOS>BOND
     1     1     2 2   
     2     1     5 1   
     3     1    16 1   
     4     2     3 1   
     5     3     4 1   
     6     3     6 1   
     7     4     5 2   
     8     4     9 1   
     9     5    23 1   
    10     6     7 2   
    11     6    11 1   
    12     7     8 1   
    13     7    28 1   
    14     8     9 2   
    15     8    10 1   
    16    10    29 1   
    17    10    30 1   
    18    10    31 1   
    19    11    12 1   
    20    11    32 1   
    21    12    13 1   
    22    12    33 1   
    23    12    34 1   
    24    13    14 1   
    25    13    15 1   
    26    13    35 1   
    27    14    15 1   
    28    14    36 1   
    29    14    37 1   
    30    15    38 1   
    31    15    39 1   
    32    16    17 1   
    33    16    40 1   
    34    17    18 ar  
    35    17    22 ar  
    36    18    19 ar  
    37    18    41 1   
    38    19    20 ar  
    39    19    42 1   
    40    20    21 ar  
    41    20    26 1   
    42    21    22 ar  
    43    21    43 1   
    44    22    44 1   
    45    23    24 2   
    46    23    25 1   
    47    25    45 1   
    48    25    46 1   
    49    26    27 1   
    50    27    47 1   
    51    27    48 1   
    52    27    49 1   
@<TRIPOS>SUBSTRUCTURE
     1 KSC         1 TEMP              0 ****  ****    0 ROOT
