@<TRIPOS>MOLECULE
KSC
   49    52     1     0     0
SMALL
abcg2


@<TRIPOS>ATOM
      1 C1           0.1360     1.3500     0.2540 cc         1 KSC       0.684500
      2 N2          -0.4270     0.1720     0.0590 nd         1 KSC      -0.689100
      3 N3          -1.7430     0.4460    -0.0650 na         1 KSC       0.065900
      4 C4          -2.0420     1.7820     0.0250 cd         1 KSC       0.521500
      5 C5          -0.8140     2.4130     0.2560 cc         1 KSC      -0.459800
      6 C6          -2.6840    -0.5100    -0.2490 cc         1 KSC       0.417000
      7 C7          -3.9940    -0.0470    -0.3440 cd         1 KSC      -0.346000
      8 C8          -4.2390     1.3230    -0.2480 cc         1 KSC       0.453300
      9 N9          -3.2880     2.2330    -0.0700 nd         1 KSC      -0.694000
     10 C10         -5.6440     1.8340    -0.3270 c3         1 KSC      -0.151400
     11 N11         -2.2760    -1.7710    -0.3250 nu         1 KSC      -0.953200
     12 C12         -3.1740    -2.9030    -0.4480 c3         1 KSC       0.262800
     13 C13         -2.3800    -4.1580    -0.6590 cx         1 KSC      -0.159700
     14 C14         -2.9010    -5.4530    -0.1230 cx         1 KSC      -0.121400
     15 C15         -1.7080    -4.8090     0.5150 cx         1 KSC      -0.121400
     16 N16          1.4810     1.5000     0.3960 nu         1 KSC      -0.896200
     17 C17          2.4720     0.5170     0.3830 ca         1 KSC       0.279000
     18 C18          2.2480    -0.8290     0.6860 ca         1 KSC      -0.117500
     19 C19          3.2980    -1.7300     0.6860 ca         1 KSC      -0.142000
     20 C20          4.6000    -1.3270     0.3970 ca         1 KSC       0.110100
     21 C21          4.8320     0.0140     0.1050 ca         1 KSC      -0.142000
     22 C22          3.7760     0.9150     0.0970 ca         1 KSC      -0.117500
     23 C23         -0.6320     3.8490     0.4360 c          1 KSC       0.648300
     24 O24         -1.4150     4.6720    -0.0200 o          1 KSC      -0.582100
     25 N25          0.4890     4.2230     1.1160 nt         1 KSC      -0.606000
     26 O26          5.5520    -2.2850     0.4230 os         1 KSC      -0.342100
     27 C27          6.8810    -1.9160     0.1190 c3         1 KSC       0.149900
     28 H7          -4.8070    -0.7440    -0.4790 ha         1 KSC       0.136000
     29 H10         -5.9570     2.2210     0.6440 hc         1 KSC       0.058033
     30 H10A        -5.7130     2.6570    -1.0390 hc         1 KSC       0.058033
     31 H10B        -6.3440     1.0560    -0.6230 hc         1 KSC       0.058033
     32 HN11        -1.2940    -1.9490    -0.1680 hn         1 KSC       0.531000
     33 H12         -3.7940    -2.9930     0.4510 h1         1 KSC       0.051700
     34 H12A        -3.8510    -2.7410    -1.2900 h1         1 KSC       0.051700
     35 H13         -1.8490    -4.2040    -1.6050 hc         1 KSC       0.092700
     36 H14         -3.8370    -5.4360     0.4230 hc         1 KSC       0.077450
     37 H14A        -2.7490    -6.3450    -0.7170 hc         1 KSC       0.077450
     38 H15         -0.7370    -5.2580     0.3580 hc         1 KSC       0.077450
     39 H15A        -1.8390    -4.3560     1.4900 hc         1 KSC       0.077450
     40 HN16         1.8170     2.4450     0.2880 hn         1 KSC       0.510000
     41 H18          1.2580    -1.1840     0.9240 ha         1 KSC       0.124000
     42 H19          3.1030    -2.7700     0.9200 ha         1 KSC       0.120500
     43 H21          5.8220     0.3830    -0.1250 ha         1 KSC       0.120500
     44 H22          3.9820     1.9530    -0.1360 ha         1 KSC       0.124000
     45 HN25         0.8660     3.6120     1.8230 hn         1 KSC       0.294000
     46 HN2A         0.5860     5.2050     1.3240 hn         1 KSC       0.294000
     47 H27          7.2720    -1.1750     0.8210 h1         1 KSC       0.039033
     48 H27A         7.4800    -2.8200     0.1980 h1         1 KSC       0.039033
     49 H27B         6.9750    -1.5200    -0.8960 h1         1 KSC       0.039033
@<TRIPOS>BOND
     1     1     2 2   
     2     1     5 1   
     3     1    16 1   
     4     2     3 1   
     5     3     4 1   
     6     3     6 1   
     7     4     5 2   
     8     4     9 1   
     9     5    23 1   
    10     6     7 2   
    11     6    11 1   
    12     7     8 1   
    13     7    28 1   
    14     8     9 2   
    15     8    10 1   
    16    10    29 1   
    17    10    30 1   
    18    10    31 1   
    19    11    12 1   
    20    11    32 1   
    21    12    13 1   
    22    12    33 1   
    23    12    34 1   
    24    13    14 1   
    25    13    15 1   
    26    13    35 1   
    27    14    15 1   
    28    14    36 1   
    29    14    37 1   
    30    15    38 1   
    31    15    39 1   
    32    16    17 1   
    33    16    40 1   
    34    17    18 ar  
    35    17    22 ar  
    36    18    19 ar  
    37    18    41 1   
    38    19    20 ar  
    39    19    42 1   
    40    20    21 ar  
    41    20    26 1   
    42    21    22 ar  
    43    21    43 1   
    44    22    44 1   
    45    23    24 2   
    46    23    25 1   
    47    25    45 1   
    48    25    46 1   
    49    26    27 1   
    50    27    47 1   
    51    27    48 1   
    52    27    49 1   
@<TRIPOS>SUBSTRUCTURE
     1 KSC         1 TEMP              0 ****  ****    0 ROOT
