@<TRIPOS>MOLECULE
KSD
   60    62     1     0     0
SMALL
No Charge or Current Charge


@<TRIPOS>ATOM
      1 C4          -4.5180    -2.7290     0.4880 ca         1 KSD      -0.121000
      2 C14         -1.7940    -0.0470     0.8480 c3         1 KSD       0.213900
      3 C5          -3.2930    -2.0950     0.7270 ca         1 KSD      -0.074000
      4 C6          -3.1600    -0.6970     0.5770 ca         1 KSD      -0.082300
      5 C11         -7.8920     1.6500    -2.1160 ca         1 KSD      -0.114500
      6 C7          -6.7570     0.1660    -0.5210 cp         1 KSD      -0.028000
      7 C8          -7.9760     0.0500     0.1900 ca         1 KSD      -0.100000
      8 C9          -9.1300     0.7290    -0.2360 ca         1 KSD      -0.114500
      9 C10         -9.0880     1.5310    -1.3890 ca         1 KSD      -0.113000
     10 C12         -6.7390     0.9700    -1.6880 ca         1 KSD      -0.100000
     11 C13         -4.1820     1.6050     0.1340 c3         1 KSD      -0.054800
     12 N1           5.4480     0.4830    -0.3260 n7         1 KSD      -0.857400
     13 C3          -5.6260    -1.9750     0.0880 ca         1 KSD      -0.100000
     14 C1          -4.2950     0.0770     0.2040 ca         1 KSD      -0.056300
     15 C15          0.5960    -0.6160     0.6070 ca         1 KSD       0.197100
     16 C16          1.5390    -1.5630     0.2000 ca         1 KSD      -0.303500
     17 C17          2.9170    -1.2990     0.3200 ca         1 KSD       0.210600
     18 C18          3.3540    -0.0690     0.8550 ca         1 KSD      -0.150300
     19 C19          2.4020     0.8880     1.2690 ca         1 KSD       0.210600
     20 C2          -5.5380    -0.5730    -0.0700 cp         1 KSD      -0.046000
     21 C20          1.0240     0.6110     1.1430 ca         1 KSD      -0.303500
     22 C21          1.9570     3.1260     2.2370 c3         1 KSD       0.153400
     23 C22          3.5180    -3.5000    -0.6360 c3         1 KSD       0.153400
     24 C23          4.8510     0.2050     0.9930 c3         1 KSD       0.231100
     25 C24          6.9420     0.6630    -0.3600 c3         1 KSD       0.030500
     26 C25          7.5660     0.4460    -1.8060 c          1 KSD       0.718000
     27 C26          7.3330     2.0280     0.2700 c3         1 KSD      -0.051100
     28 O1          -0.7340    -0.9420     0.4610 os         1 KSD      -0.356100
     29 O2           2.8490     2.0860     1.7970 os         1 KSD      -0.317600
     30 O3           3.8670    -2.2210    -0.0800 os         1 KSD      -0.317600
     31 O4           7.2890    -0.5940    -2.3920 o          1 KSD      -0.733500
     32 O5           8.2660     1.3180    -2.3090 o          1 KSD      -0.733500
     33 H1          -4.6050    -3.8070     0.6050 ha         1 KSD       0.112000
     34 H2          -1.7000     0.8860     0.2800 h1         1 KSD       0.042200
     35 H3          -1.7240     0.1920     1.9170 h1         1 KSD       0.042200
     36 H4          -2.4420    -2.6990     1.0350 ha         1 KSD       0.135000
     37 H5          -7.8600     2.2650    -3.0120 ha         1 KSD       0.110000
     38 H6          -8.0190    -0.5680     1.0840 ha         1 KSD       0.116500
     39 H7         -10.0570     0.6320     0.3260 ha         1 KSD       0.110000
     40 H8          -9.9820     2.0560    -1.7200 ha         1 KSD       0.108000
     41 H9          -5.8210     1.0600    -2.2640 ha         1 KSD       0.116500
     42 H10         -3.7320     1.9230    -0.8140 hc         1 KSD       0.044367
     43 H11         -5.1540     2.1020     0.2270 hc         1 KSD       0.044367
     44 H12         -3.5700     2.0050     0.9500 hc         1 KSD       0.044367
     45 H13          5.2380    -0.3400    -0.9070 hn         1 KSD       0.444000
     46 H15         -6.5680    -2.4810    -0.1120 ha         1 KSD       0.111000
     47 H16          1.1770    -2.5000    -0.2100 ha         1 KSD       0.117000
     48 H17          0.2920     1.3440     1.4610 ha         1 KSD       0.117000
     49 H18          2.5300     3.9820     2.6140 h1         1 KSD       0.034700
     50 H19          1.3280     3.4760     1.4080 h1         1 KSD       0.034700
     51 H20          1.3100     2.7670     3.0470 h1         1 KSD       0.034700
     52 H21          2.9310    -4.0890     0.0800 h1         1 KSD       0.034700
     53 H22          2.9340    -3.3780    -1.5570 h1         1 KSD       0.034700
     54 H23          4.4240    -4.0670    -0.8810 h1         1 KSD       0.034700
     55 H24          5.3280    -0.6760     1.4450 h1         1 KSD       0.023700
     56 H25          5.0240     1.0410     1.6820 h1         1 KSD       0.023700
     57 H26          7.3950    -0.1190     0.2650 h1         1 KSD      -0.001300
     58 H27          6.9870     2.1050     1.3070 hc         1 KSD       0.013700
     59 H28          8.4230     2.1470     0.2830 hc         1 KSD       0.013700
     60 H29          6.9030     2.8610    -0.3000 hc         1 KSD       0.013700
@<TRIPOS>BOND
     1     1     3 ar  
     2     1    13 ar  
     3     1    33 1   
     4     2     4 1   
     5     2    28 1   
     6     2    34 1   
     7     2    35 1   
     8     3     4 ar  
     9     3    36 1   
    10     4    14 ar  
    11     5     9 ar  
    12     5    10 ar  
    13     5    37 1   
    14     6     7 ar  
    15     6    10 ar  
    16     6    20 1   
    17     7     8 ar  
    18     7    38 1   
    19     8     9 ar  
    20     8    39 1   
    21     9    40 1   
    22    10    41 1   
    23    11    14 1   
    24    11    42 1   
    25    11    43 1   
    26    11    44 1   
    27    12    24 1   
    28    12    25 1   
    29    12    45 1   
    30    13    20 ar  
    31    13    46 1   
    32    14    20 ar  
    33    15    16 ar  
    34    15    21 ar  
    35    15    28 1   
    36    16    17 ar  
    37    16    47 1   
    38    17    18 ar  
    39    17    30 1   
    40    18    19 ar  
    41    18    24 1   
    42    19    21 ar  
    43    19    29 1   
    44    21    48 1   
    45    22    29 1   
    46    22    49 1   
    47    22    50 1   
    48    22    51 1   
    49    23    30 1   
    50    23    52 1   
    51    23    53 1   
    52    23    54 1   
    53    24    55 1   
    54    24    56 1   
    55    25    26 1   
    56    25    27 1   
    57    25    57 1   
    58    26    31 1   
    59    26    32 1   
    60    27    58 1   
    61    27    59 1   
    62    27    60 1   
@<TRIPOS>SUBSTRUCTURE
     1 KSD         1 TEMP              0 ****  ****    0 ROOT
