@<TRIPOS>MOLECULE
KSD
   60    62     1     0     0
SMALL
bcc


@<TRIPOS>ATOM
      1 C4          -4.3740    -2.7100    -0.4530 ca         1 KSD      -0.139000
      2 C14         -1.7200    -0.0830     0.2320 c3         1 KSD       0.190700
      3 C5          -3.1390    -2.1160    -0.2380 ca         1 KSD      -0.092000
      4 C6          -3.0470    -0.7470    -0.0220 ca         1 KSD      -0.082300
      5 C11         -8.0770     1.9570    -1.2940 ca         1 KSD      -0.132500
      6 C7          -6.7080     0.2220    -0.3120 cp         1 KSD      -0.028000
      7 C8          -7.7720    -0.1110     0.5250 ca         1 KSD      -0.118000
      8 C9          -8.9720     0.5840     0.4590 ca         1 KSD      -0.132500
      9 C10         -9.1290     1.6200    -0.4520 ca         1 KSD      -0.131000
     10 C12         -6.8770     1.2630    -1.2240 ca         1 KSD      -0.118000
     11 C13         -4.0870     1.5220     0.2610 c3         1 KSD      -0.054800
     12 N1           5.4560     0.4560    -0.1530 n7         1 KSD      -0.802200
     13 C3          -5.5180    -1.9330    -0.4650 ca         1 KSD      -0.118000
     14 C1          -4.2040     0.0490    -0.0190 ca         1 KSD      -0.056300
     15 C15          0.5860    -0.6550     0.3330 ca         1 KSD       0.197100
     16 C16          1.5340    -1.6680     0.2220 ca         1 KSD      -0.321500
     17 C17          2.8690    -1.3710     0.4680 ca         1 KSD       0.210600
     18 C18          3.2850    -0.0850     0.8390 ca         1 KSD      -0.150300
     19 C19          2.3080     0.9080     0.9170 ca         1 KSD       0.210600
     20 C2          -5.4460    -0.5550    -0.2600 cp         1 KSD      -0.046000
     21 C20          0.9570     0.6380     0.6750 ca         1 KSD      -0.321500
     22 C21          1.8080     3.1940     1.3630 c3         1 KSD       0.130200
     23 C22          3.5140    -3.6090    -0.0190 c3         1 KSD       0.130200
     24 C23          4.7400     0.2070     1.0880 c3         1 KSD       0.231100
     25 C24          6.8760     0.6890     0.0370 c3         1 KSD       0.030500
     26 C25          7.6810     0.2120    -1.1970 c          1 KSD       0.928600
     27 C26          7.1500     2.1510     0.3640 c3         1 KSD      -0.051100
     28 O1          -0.6860    -1.0260     0.0810 os         1 KSD      -0.332900
     29 O2           2.7400     2.1390     1.2490 os         1 KSD      -0.294400
     30 O3           3.8470    -2.2920     0.3690 os         1 KSD      -0.294400
     31 O4           7.1110    -0.5790    -1.9770 o          1 KSD      -0.838800
     32 O5           8.8520     0.6280    -1.2910 o          1 KSD      -0.838800
     33 H1          -4.4400    -3.7770    -0.6180 ha         1 KSD       0.130000
     34 H2          -1.5800     0.7530    -0.4650 h1         1 KSD       0.042200
     35 H3          -1.7030     0.3410     1.2440 h1         1 KSD       0.042200
     36 H4          -2.2520    -2.7330    -0.2400 ha         1 KSD       0.153000
     37 H5          -8.1900     2.7600    -2.0120 ha         1 KSD       0.128000
     38 H6          -7.6570    -0.9140     1.2430 ha         1 KSD       0.134500
     39 H7          -9.7850     0.3150     1.1210 ha         1 KSD       0.128000
     40 H8         -10.0640     2.1620    -0.5060 ha         1 KSD       0.126000
     41 H9          -6.0680     1.5260    -1.8950 ha         1 KSD       0.134500
     42 H10         -3.7320     2.0730    -0.6140 hc         1 KSD       0.044367
     43 H11         -5.0380     1.9590     0.5530 hc         1 KSD       0.044367
     44 H12         -3.3820     1.7230     1.0690 hc         1 KSD       0.044367
     45 H13          5.3690    -0.3500    -0.7610 hn         1 KSD       0.388800
     46 H15         -6.4800    -2.3930    -0.6540 ha         1 KSD       0.129000
     47 H16          1.2060    -2.6610    -0.0540 ha         1 KSD       0.135000
     48 H17          0.2210     1.4240     0.7430 ha         1 KSD       0.135000
     49 H18          2.3770     4.0750     1.6510 h1         1 KSD       0.034700
     50 H19          1.3020     3.4000     0.4160 h1         1 KSD       0.034700
     51 H20          1.0550     2.9980     2.1310 h1         1 KSD       0.034700
     52 H21          2.8360    -4.0870     0.6930 h1         1 KSD       0.034700
     53 H22          3.0610    -3.6390    -1.0130 h1         1 KSD       0.034700
     54 H23          4.4470    -4.1680    -0.0420 h1         1 KSD       0.034700
     55 H24          5.1870    -0.6180     1.6640 h1         1 KSD       0.023700
     56 H25          4.8270     1.0870     1.7250 h1         1 KSD       0.023700
     57 H26          7.2590     0.0850     0.8840 h1         1 KSD      -0.001300
     58 H27          6.5710     2.4790     1.2300 hc         1 KSD       0.013700
     59 H28          8.2010     2.3150     0.5920 hc         1 KSD       0.013700
     60 H29          6.8780     2.7960    -0.4740 hc         1 KSD       0.013700
@<TRIPOS>BOND
     1     1     3 ar  
     2     1    13 ar  
     3     1    33 1   
     4     2     4 1   
     5     2    28 1   
     6     2    34 1   
     7     2    35 1   
     8     3     4 ar  
     9     3    36 1   
    10     4    14 ar  
    11     5     9 ar  
    12     5    10 ar  
    13     5    37 1   
    14     6     7 ar  
    15     6    10 ar  
    16     6    20 1   
    17     7     8 ar  
    18     7    38 1   
    19     8     9 ar  
    20     8    39 1   
    21     9    40 1   
    22    10    41 1   
    23    11    14 1   
    24    11    42 1   
    25    11    43 1   
    26    11    44 1   
    27    12    24 1   
    28    12    25 1   
    29    12    45 1   
    30    13    20 ar  
    31    13    46 1   
    32    14    20 ar  
    33    15    16 ar  
    34    15    21 ar  
    35    15    28 1   
    36    16    17 ar  
    37    16    47 1   
    38    17    18 ar  
    39    17    30 1   
    40    18    19 ar  
    41    18    24 1   
    42    19    21 ar  
    43    19    29 1   
    44    21    48 1   
    45    22    29 1   
    46    22    49 1   
    47    22    50 1   
    48    22    51 1   
    49    23    30 1   
    50    23    52 1   
    51    23    53 1   
    52    23    54 1   
    53    24    55 1   
    54    24    56 1   
    55    25    26 1   
    56    25    27 1   
    57    25    57 1   
    58    26    31 1   
    59    26    32 1   
    60    27    58 1   
    61    27    59 1   
    62    27    60 1   
@<TRIPOS>SUBSTRUCTURE
     1 KSD         1 TEMP              0 ****  ****    0 ROOT
