@<TRIPOS>MOLECULE
KSE
   57    59     1     0     0
SMALL
No Charge or Current Charge


@<TRIPOS>ATOM
      1 C1          26.6360    36.7340     8.3720 cc         1 KSE       0.700500
      2 N2          26.7340    35.4820     8.0040 nd         1 KSE      -0.669100
      3 N3          25.4440    35.2400     7.5030 na         1 KSE       0.066900
      4 C4          24.6500    36.3740     7.6300 cd         1 KSE       0.506500
      5 C5          25.4050    37.3470     8.1920 cc         1 KSE      -0.456800
      6 C6          24.8780    34.0790     6.9440 cc         1 KSE       0.436000
      7 C7          23.5490    34.2490     6.6160 cd         1 KSE      -0.357000
      8 C8          22.8490    35.4290     6.7930 cc         1 KSE       0.465300
      9 N9          23.3270    36.5600     7.2980 nd         1 KSE      -0.759000
     10 C11         21.4060    35.4720     6.3820 c3         1 KSE      -0.151400
     11 N15         25.5330    32.8760     6.7330 nu         1 KSE      -0.942200
     12 C16         26.9980    32.6150     6.6740 c3         1 KSE       0.231800
     13 C17         27.6240    32.7990     5.2390 c3         1 KSE       0.147200
     14 N20         29.0360    32.3660     5.2540 n8         1 KSE      -1.007200
     15 C21         27.6110    34.2830     4.7970 c3         1 KSE      -0.106600
     16 C25         26.8960    31.9230     4.1890 c3         1 KSE      -0.106600
     17 N32         27.6640    37.4130     8.9160 nu         1 KSE      -0.887200
     18 C33         28.9210    37.0560     9.3770 ca         1 KSE       0.389000
     19 C34         29.4190    37.6950    10.5160 ca         1 KSE      -0.232000
     20 C35         30.6910    37.3800    11.0090 ca         1 KSE       0.197100
     21 C36         31.4800    36.4200    10.3470 ca         1 KSE      -0.308000
     22 C37         30.9850    35.7880     9.1900 ca         1 KSE       0.197100
     23 C38         29.7120    36.1120     8.7110 ca         1 KSE      -0.232000
     24 C42         25.0680    38.7140     8.5600 c          1 KSE       0.664300
     25 O43         25.8560    39.4750     9.0930 o          1 KSE      -0.677100
     26 N44         23.8260    39.1330     8.2960 nt         1 KSE      -0.600000
     27 O48         31.1180    38.0400    12.1420 os         1 KSE      -0.355600
     28 O49         31.7120    34.8490     8.4890 os         1 KSE      -0.355600
     29 C50         33.0310    34.4380     8.8900 c3         1 KSE       0.151400
     30 C54         32.4060    37.7960    12.7350 c3         1 KSE       0.151400
     31 H7          23.0190    33.4090     6.1850 ha         1 KSE       0.133000
     32 H11         20.9460    36.4460     6.5880 hc         1 KSE       0.058700
     33 H11A        21.3060    35.2750     5.3090 hc         1 KSE       0.058700
     34 H11B        20.8300    34.7100     6.9210 hc         1 KSE       0.058700
     35 HN15        24.9280    32.1400     6.3690 hn         1 KSE       0.493000
     36 H16         27.5520    33.2340     7.3890 h1         1 KSE       0.085700
     37 H16A        27.1820    31.5760     6.9840 h1         1 KSE       0.085700
     38 HN20        29.1920    31.7110     4.4800 hn         1 KSE       0.408500
     39 HN2A        29.6320    33.1650     5.0120 hn         1 KSE       0.408500
     40 H21         28.0940    34.4110     3.8210 hc         1 KSE       0.041367
     41 H21A        26.5840    34.6570     4.7080 hc         1 KSE       0.041367
     42 H21B        28.1380    34.9150     5.5220 hc         1 KSE       0.041367
     43 H25         27.3850    31.9880     3.2090 hc         1 KSE       0.041367
     44 H25A        26.8840    30.8700     4.4950 hc         1 KSE       0.041367
     45 H25B        25.8570    32.2480     4.0580 hc         1 KSE       0.041367
     46 HN32        27.3270    38.3270     9.2280 hn         1 KSE       0.547000
     47 H34         28.8180    38.4360    11.0330 ha         1 KSE       0.143500
     48 H36         32.4660    36.1730    10.7230 ha         1 KSE       0.121000
     49 H38         29.3470    35.6310     7.8110 ha         1 KSE       0.143500
     50 HN44        23.5500    40.0710     8.5370 hn         1 KSE       0.328000
     51 HN4A        23.1830    38.4830     7.8610 hn         1 KSE       0.328000
     52 H50         33.4230    33.6850     8.1950 h1         1 KSE       0.041200
     53 H50A        33.7220    35.2910     8.8920 h1         1 KSE       0.041200
     54 H50B        33.0130    33.9960     9.8950 h1         1 KSE       0.041200
     55 H54         32.5400    38.4250    13.6240 h1         1 KSE       0.041200
     56 H54A        32.5010    36.7470    13.0440 h1         1 KSE       0.041200
     57 H54B        33.2120    38.0310    12.0290 h1         1 KSE       0.041200
@<TRIPOS>BOND
     1     1     2 2   
     2     1     5 1   
     3     1    17 1   
     4     2     3 1   
     5     3     4 1   
     6     3     6 1   
     7     4     5 2   
     8     4     9 1   
     9     5    24 1   
    10     6     7 2   
    11     6    11 1   
    12     7     8 1   
    13     7    31 1   
    14     8     9 2   
    15     8    10 1   
    16    10    32 1   
    17    10    33 1   
    18    10    34 1   
    19    11    12 1   
    20    11    35 1   
    21    12    13 1   
    22    12    36 1   
    23    12    37 1   
    24    13    14 1   
    25    13    15 1   
    26    13    16 1   
    27    14    38 1   
    28    14    39 1   
    29    15    40 1   
    30    15    41 1   
    31    15    42 1   
    32    16    43 1   
    33    16    44 1   
    34    16    45 1   
    35    17    18 1   
    36    17    46 1   
    37    18    19 ar  
    38    18    23 ar  
    39    19    20 ar  
    40    19    47 1   
    41    20    21 ar  
    42    20    27 1   
    43    21    22 ar  
    44    21    48 1   
    45    22    23 ar  
    46    22    28 1   
    47    23    49 1   
    48    24    25 2   
    49    24    26 1   
    50    26    50 1   
    51    26    51 1   
    52    27    30 1   
    53    28    29 1   
    54    29    52 1   
    55    29    53 1   
    56    29    54 1   
    57    30    55 1   
    58    30    56 1   
    59    30    57 1   
@<TRIPOS>SUBSTRUCTURE
     1 KSE         1 TEMP              0 ****  ****    0 ROOT
