@<TRIPOS>MOLECULE
KSE
   57    59     1     0     0
SMALL
abcg2


@<TRIPOS>ATOM
      1 C1          26.3610    36.5890     8.7780 cc         1 KSE       0.700500
      2 N2          26.4460    35.3870     8.2090 nd         1 KSE      -0.669100
      3 N3          25.2470    35.2320     7.5490 na         1 KSE       0.066900
      4 C4          24.3990    36.3290     7.7240 cd         1 KSE       0.506500
      5 C5          25.1130    37.2290     8.5270 cc         1 KSE      -0.456800
      6 C6          24.8760    34.1660     6.7920 cc         1 KSE       0.436000
      7 C7          23.5860    34.2480     6.2380 cd         1 KSE      -0.357000
      8 C8          22.7820    35.3550     6.4560 cc         1 KSE       0.465300
      9 N9          23.1810    36.4030     7.1960 nd         1 KSE      -0.759000
     10 C11         21.4090    35.4390     5.8590 c3         1 KSE      -0.151400
     11 N15         25.6470    33.0860     6.5930 nu         1 KSE      -0.942200
     12 C16         27.0710    32.8570     6.8140 c3         1 KSE       0.231800
     13 C17         27.9690    33.2020     5.6030 c3         1 KSE       0.147200
     14 N20         29.3370    32.8580     6.0350 n8         1 KSE      -1.007200
     15 C21         27.8340    34.6800     5.2160 c3         1 KSE      -0.106600
     16 C25         27.6150    32.3170     4.4080 c3         1 KSE      -0.106600
     17 N32         27.3490    37.1590     9.5230 nu         1 KSE      -0.887200
     18 C33         28.6800    36.7790     9.6740 ca         1 KSE       0.389000
     19 C34         29.4990    37.6080    10.4510 ca         1 KSE      -0.232000
     20 C35         30.8430    37.2930    10.6140 ca         1 KSE       0.197100
     21 C36         31.4020    36.1580    10.0160 ca         1 KSE      -0.308000
     22 C37         30.5660    35.3460     9.2510 ca         1 KSE       0.197100
     23 C38         29.2160    35.6380     9.0780 ca         1 KSE      -0.232000
     24 C42         24.7030    38.5380     9.0010 c          1 KSE       0.664300
     25 O43         25.4440    39.2340     9.7250 o          1 KSE      -0.677100
     26 N44         23.4810    38.9620     8.6150 nt         1 KSE      -0.600000
     27 O48         31.5610    38.1560    11.3850 os         1 KSE      -0.355600
     28 O49         30.9930    34.2160     8.6170 os         1 KSE      -0.355600
     29 C50         32.3720    33.8620     8.7040 c3         1 KSE       0.151400
     30 C54         32.9550    37.9100    11.5690 c3         1 KSE       0.151400
     31 H7          23.2410    33.4300     5.6230 ha         1 KSE       0.133000
     32 H11         21.3300    36.3270     5.2290 hc         1 KSE       0.058700
     33 H11A        21.1780    34.5580     5.2630 hc         1 KSE       0.058700
     34 H11B        20.6640    35.5350     6.6520 hc         1 KSE       0.058700
     35 HN15        25.1960    32.3880     6.0190 hn         1 KSE       0.493000
     36 H16         27.3900    33.4230     7.6800 h1         1 KSE       0.085700
     37 H16A        27.1880    31.7960     7.0310 h1         1 KSE       0.085700
     38 HN20        29.9750    32.9960     5.2560 hn         1 KSE       0.408500
     39 HN2A        29.6490    33.4900     6.7680 hn         1 KSE       0.408500
     40 H21         28.5140    34.9050     4.3920 hc         1 KSE       0.041367
     41 H21A        26.8200    34.9200     4.8880 hc         1 KSE       0.041367
     42 H21B        28.0810    35.3250     6.0600 hc         1 KSE       0.041367
     43 H25         28.3010    32.5110     3.5800 hc         1 KSE       0.041367
     44 H25A        27.6880    31.2610     4.6760 hc         1 KSE       0.041367
     45 H25B        26.6030    32.5190     4.0560 hc         1 KSE       0.041367
     46 HN32        27.0720    38.0660     9.8870 hn         1 KSE       0.547000
     47 H34         29.0990    38.4980    10.9200 ha         1 KSE       0.143500
     48 H36         32.4430    35.9200    10.1450 ha         1 KSE       0.121000
     49 H38         28.6060    34.9890     8.4780 ha         1 KSE       0.143500
     50 HN44        23.1470    39.8590     8.9280 hn         1 KSE       0.328000
     51 HN4A        22.8970    38.3700     8.0370 hn         1 KSE       0.328000
     52 H50         32.4830    32.9560     8.1150 h1         1 KSE       0.041200
     53 H50A        33.0070    34.6500     8.2910 h1         1 KSE       0.041200
     54 H50B        32.6620    33.6650     9.7390 h1         1 KSE       0.041200
     55 H54         33.3190    38.7210    12.1950 h1         1 KSE       0.041200
     56 H54A        33.1240    36.9550    12.0710 h1         1 KSE       0.041200
     57 H54B        33.4840    37.9190    10.6130 h1         1 KSE       0.041200
@<TRIPOS>BOND
     1     1     2 2   
     2     1     5 1   
     3     1    17 1   
     4     2     3 1   
     5     3     4 1   
     6     3     6 1   
     7     4     5 2   
     8     4     9 1   
     9     5    24 1   
    10     6     7 2   
    11     6    11 1   
    12     7     8 1   
    13     7    31 1   
    14     8     9 2   
    15     8    10 1   
    16    10    32 1   
    17    10    33 1   
    18    10    34 1   
    19    11    12 1   
    20    11    35 1   
    21    12    13 1   
    22    12    36 1   
    23    12    37 1   
    24    13    14 1   
    25    13    15 1   
    26    13    16 1   
    27    14    38 1   
    28    14    39 1   
    29    15    40 1   
    30    15    41 1   
    31    15    42 1   
    32    16    43 1   
    33    16    44 1   
    34    16    45 1   
    35    17    18 1   
    36    17    46 1   
    37    18    19 ar  
    38    18    23 ar  
    39    19    20 ar  
    40    19    47 1   
    41    20    21 ar  
    42    20    27 1   
    43    21    22 ar  
    44    21    48 1   
    45    22    23 ar  
    46    22    28 1   
    47    23    49 1   
    48    24    25 2   
    49    24    26 1   
    50    26    50 1   
    51    26    51 1   
    52    27    30 1   
    53    28    29 1   
    54    29    52 1   
    55    29    53 1   
    56    29    54 1   
    57    30    55 1   
    58    30    56 1   
    59    30    57 1   
@<TRIPOS>SUBSTRUCTURE
     1 KSE         1 TEMP              0 ****  ****    0 ROOT
