@<TRIPOS>MOLECULE
KSF
   36    39     1     0     0
SMALL
abcg2


@<TRIPOS>ATOM
      1 CL23        -4.4260    -1.6410     0.2150 cl         1 KSF      -0.212000
      2 C18         -4.2070     0.0620    -0.0590 ca         1 KSF       0.060000
      3 C17         -2.9170     0.5720    -0.2700 ca         1 KSF       0.318000
      4 C22         -2.7990     1.9480    -0.4850 ca         1 KSF      -0.124000
      5 C21         -3.9190     2.7640    -0.4810 ca         1 KSF      -0.082000
      6 C20         -5.1850     2.2390    -0.2720 ca         1 KSF      -0.130000
      7 C19         -5.3250     0.8760    -0.0630 ca         1 KSF      -0.074000
      8 N16         -1.8490    -0.3150    -0.2870 nu         1 KSF      -0.928900
      9 C2          -0.5140    -0.0750    -0.1860 cc         1 KSF       0.686900
     10 N3          -0.0300     1.1200    -0.0270 nd         1 KSF      -0.760000
     11 C4           1.3210     1.2670     0.0680 cd         1 KSF       0.362900
     12 C5           2.2260     0.2610     0.0220 cc         1 KSF      -0.132000
     13 N6           1.7030    -1.0170    -0.1330 na         1 KSF       0.088200
     14 C7           2.2850    -2.2360    -0.1610 cc         1 KSF       0.354700
     15 N8           1.3900    -3.1900    -0.2950 nd         1 KSF      -0.556300
     16 C9           0.1840    -2.5880    -0.3510 cd         1 KSF      -0.045400
     17 C1           0.3410    -1.2230    -0.2480 cc         1 KSF      -0.255000
     18 C10          3.6790     0.4560     0.1070 ca         1 KSF      -0.040000
     19 C11          4.2140     1.2200     1.1430 ca         1 KSF      -0.093500
     20 C12          5.5810     1.4530     1.2130 ca         1 KSF      -0.109000
     21 C13          6.4290     0.9170     0.2540 ca         1 KSF      -0.098000
     22 C14          5.9040     0.1530    -0.7810 ca         1 KSF      -0.109000
     23 C15          4.5390    -0.0740    -0.8570 ca         1 KSF      -0.093500
     24 H22         -1.8240     2.3760    -0.6520 ha         1 KSF       0.153000
     25 H21         -3.7920     3.8250    -0.6490 ha         1 KSF       0.119000
     26 H20         -6.0570     2.8780    -0.2720 ha         1 KSF       0.121000
     27 H19         -6.3030     0.4430     0.1030 ha         1 KSF       0.129000
     28 HN16        -2.1090    -1.2880    -0.3260 hn         1 KSF       0.515000
     29 H4           1.6780     2.2840     0.1720 h4         1 KSF       0.034100
     30 H7           3.3500    -2.3800    -0.0750 h5         1 KSF       0.078800
     31 H9          -0.7290    -3.1540    -0.4610 h4         1 KSF       0.229000
     32 H11          3.5600     1.6270     1.9040 ha         1 KSF       0.120500
     33 H12          5.9820     2.0460     2.0240 ha         1 KSF       0.118000
     34 H13          7.4950     1.0940     0.3120 ha         1 KSF       0.117000
     35 H14          6.5580    -0.2610    -1.5370 ha         1 KSF       0.118000
     36 H15          4.1420    -0.6470    -1.6870 ha         1 KSF       0.120500
@<TRIPOS>BOND
     1     1     2 1   
     2     2     3 ar  
     3     2     7 ar  
     4     3     4 ar  
     5     3     8 1   
     6     4     5 ar  
     7     4    24 1   
     8     5     6 ar  
     9     5    25 1   
    10     6     7 ar  
    11     6    26 1   
    12     7    27 1   
    13     8     9 1   
    14     8    28 1   
    15     9    10 2   
    16     9    17 1   
    17    10    11 1   
    18    11    12 2   
    19    11    29 1   
    20    12    13 1   
    21    12    18 1   
    22    13    14 1   
    23    13    17 1   
    24    14    15 2   
    25    14    30 1   
    26    15    16 1   
    27    16    17 2   
    28    16    31 1   
    29    18    19 ar  
    30    18    23 ar  
    31    19    20 ar  
    32    19    32 1   
    33    20    21 ar  
    34    20    33 1   
    35    21    22 ar  
    36    21    34 1   
    37    22    23 ar  
    38    22    35 1   
    39    23    36 1   
@<TRIPOS>SUBSTRUCTURE
     1 KSF         1 TEMP              0 ****  ****    0 ROOT
