@<TRIPOS>MOLECULE
KSF
   36    39     1     0     0
SMALL
No Charge or Current Charge


@<TRIPOS>ATOM
      1 Cl23        -4.1320    -1.4550     1.1040 cl         1 KSF      -0.212000
      2 C18         -4.0780     0.1450     0.3510 ca         1 KSF       0.060000
      3 C17         -2.9250     0.5820    -0.3460 ca         1 KSF       0.318000
      4 C22         -2.9360     1.8530    -0.9510 ca         1 KSF      -0.124000
      5 C21         -4.0630     2.6890    -0.8450 ca         1 KSF      -0.082000
      6 C20         -5.1950     2.2540    -0.1370 ca         1 KSF      -0.130000
      7 C19         -5.2040     0.9810     0.4580 ca         1 KSF      -0.074000
      8 N16         -1.8140    -0.2660    -0.4650 nu         1 KSF      -0.928900
      9 C2          -0.4760    -0.0620    -0.3750 cc         1 KSF       0.686900
     10 N3          -0.0440     1.1530    -0.1300 nd         1 KSF      -0.760000
     11 C4           1.3560     1.2530     0.0510 cd         1 KSF       0.362900
     12 C5           2.2400     0.1610    -0.0410 cc         1 KSF      -0.132000
     13 N6           1.6800    -1.0470    -0.4440 na         1 KSF       0.088200
     14 C7           2.3040    -2.2680    -0.4160 cc         1 KSF       0.354700
     15 N8           1.3650    -3.2020    -0.6170 nd         1 KSF      -0.556300
     16 C9           0.1360    -2.5340    -0.6830 cd         1 KSF      -0.045400
     17 C1           0.3590    -1.1860    -0.5000 cc         1 KSF      -0.255000
     18 C10          3.6710     0.4120     0.1440 ca         1 KSF      -0.040000
     19 C11          4.1240     1.1440     1.2610 ca         1 KSF      -0.093500
     20 C12          5.4960     1.3920     1.4420 ca         1 KSF      -0.109000
     21 C13          6.4270     0.9160     0.5040 ca         1 KSF      -0.098000
     22 C14          5.9840     0.1930    -0.6150 ca         1 KSF      -0.109000
     23 C15          4.6120    -0.0560    -0.7960 ca         1 KSF      -0.093500
     24 H22         -2.0710     2.1930    -1.5130 ha         1 KSF       0.153000
     25 H21         -4.0580     3.6710    -1.3140 ha         1 KSF       0.119000
     26 H20         -6.0670     2.8990    -0.0550 ha         1 KSF       0.121000
     27 H19         -6.0830     0.6400     1.0000 ha         1 KSF       0.129000
     28 HN16        -2.0300    -1.2400    -0.2830 hn         1 KSF       0.515000
     29 H4           1.7160     2.2490     0.2790 h4         1 KSF       0.034100
     30 H7           3.3660    -2.4110    -0.2640 h5         1 KSF       0.078800
     31 H9          -0.8100    -3.0620    -0.8130 h4         1 KSF       0.229000
     32 H11          3.4150     1.5120     2.0000 ha         1 KSF       0.120500
     33 H12          5.8370     1.9530     2.3100 ha         1 KSF       0.118000
     34 H13          7.4890     1.1080     0.6440 ha         1 KSF       0.117000
     35 H14          6.7030    -0.1700    -1.3470 ha         1 KSF       0.118000
     36 H15          4.2830    -0.6010    -1.6780 ha         1 KSF       0.120500
@<TRIPOS>BOND
     1     1     2 1   
     2     2     3 ar  
     3     2     7 ar  
     4     3     4 ar  
     5     3     8 1   
     6     4     5 ar  
     7     4    24 1   
     8     5     6 ar  
     9     5    25 1   
    10     6     7 ar  
    11     6    26 1   
    12     7    27 1   
    13     8     9 1   
    14     8    28 1   
    15     9    10 2   
    16     9    17 1   
    17    10    11 1   
    18    11    12 2   
    19    11    29 1   
    20    12    13 1   
    21    12    18 1   
    22    13    14 1   
    23    13    17 1   
    24    14    15 2   
    25    14    30 1   
    26    15    16 1   
    27    16    17 2   
    28    16    31 1   
    29    18    19 ar  
    30    18    23 ar  
    31    19    20 ar  
    32    19    32 1   
    33    20    21 ar  
    34    20    33 1   
    35    21    22 ar  
    36    21    34 1   
    37    22    23 ar  
    38    22    35 1   
    39    23    36 1   
@<TRIPOS>SUBSTRUCTURE
     1 KSF         1 TEMP              0 ****  ****    0 ROOT
