@<TRIPOS>MOLECULE
KSG
   50    51     1     0     0
SMALL
bcc


@<TRIPOS>ATOM
      1 C1          -4.0030     2.2150     0.1570 c6         1 KSG       0.304900
      2 O1          -4.3750     0.8990    -0.1710 os         1 KSG      -0.432600
      3 C2          -3.5040     0.1690    -0.9990 c6         1 KSG       0.121100
      4 C3          -4.3430    -0.6570    -1.9780 c6         1 KSG       0.124600
      5 O2          -5.1370     0.1550    -2.7970 oh         1 KSG      -0.584800
      6 C4          -3.4660    -1.5330    -2.8740 c6         1 KSG       0.120600
      7 O3          -2.7220    -0.8020    -3.8160 oh         1 KSG      -0.587800
      8 C5          -2.6050    -2.4420    -1.9900 c6         1 KSG       0.076100
      9 O4          -1.7240    -3.2440    -2.7370 oh         1 KSG      -0.597800
     10 C6          -1.7560    -1.6340    -1.0160 c6         1 KSG       0.120600
     11 O5          -1.0250    -2.4700    -0.1520 oh         1 KSG      -0.587800
     12 C7          -2.6340    -0.7450    -0.1430 c6         1 KSG       0.124600
     13 O6          -1.8620     0.0590     0.7080 oh         1 KSG      -0.584800
     14 O7          -4.5350     3.1300    -0.7600 os         1 KSG      -0.442600
     15 C8          -5.9580     3.2350    -0.7780 c6         1 KSG       0.144100
     16 C9          -6.3140     4.2390    -1.8490 c3         1 KSG      -0.082100
     17 C10         -6.5070     3.6040     0.5980 c6         1 KSG       0.202500
     18 C11         -5.9700     2.6250     1.6480 c6         1 KSG      -0.107400
     19 C12         -4.4490     2.5180     1.5930 c6         1 KSG       0.157500
     20 N1          -3.8340     3.7220     2.1240 n8         1 KSG      -0.890800
     21 N2          -7.9310     3.6440     0.5290 nu         1 KSG      -0.896200
     22 C13         -8.7290     4.3140     1.4290 ce         1 KSG       0.497200
     23 N3          -8.3920     5.2330     2.2430 n2         1 KSG      -0.830100
     24 C14        -10.1930     3.7800     1.3310 c          1 KSG       0.852300
     25 O8         -10.2940     2.8120     0.5410 o          1 KSG      -0.797300
     26 O9         -11.0680     4.4820     1.8230 o          1 KSG      -0.797300
     27 H1          -2.9160     2.3280     0.0740 h2         1 KSG       0.063700
     28 H2          -2.8580     0.8590    -1.5660 h1         1 KSG       0.059700
     29 H3          -4.9680    -1.3410    -1.3810 h1         1 KSG       0.047700
     30 HO2         -5.7370     0.6460    -2.2280 ho         1 KSG       0.426000
     31 H4          -4.1340    -2.1660    -3.4690 h1         1 KSG       0.066200
     32 HO3         -2.0760    -0.2430    -3.3780 ho         1 KSG       0.413000
     33 H5          -3.2920    -3.0660    -1.3980 h1         1 KSG       0.048700
     34 HO4         -2.2240    -3.9410    -3.1690 ho         1 KSG       0.414000
     35 H6          -1.0610    -0.9900    -1.5830 h1         1 KSG       0.066200
     36 HO5         -0.4420    -3.0150    -0.6880 ho         1 KSG       0.413000
     37 H7          -3.3060    -1.3970     0.4380 h1         1 KSG       0.047700
     38 HO6         -1.3590    -0.5180     1.2890 ho         1 KSG       0.426000
     39 H8          -6.4000     2.2610    -1.0480 h1         1 KSG       0.033700
     40 H91         -7.3960     4.3370    -1.9220 hc         1 KSG       0.045367
     41 H92         -5.9040     5.2220    -1.6080 hc         1 KSG       0.045367
     42 H93         -5.9310     3.9370    -2.8250 hc         1 KSG       0.045367
     43 H10         -6.1510     4.6180     0.8310 h1         1 KSG       0.052700
     44 H111        -6.2830     2.9410     2.6440 hc         1 KSG       0.064200
     45 H112        -6.4190     1.6450     1.4660 hc         1 KSG       0.064200
     46 H12         -4.1160     1.6850     2.2190 h1         1 KSG       0.067700
     47 HN11        -4.0260     4.5220     1.5360 hn         1 KSG       0.343800
     48 HN12        -2.8290     3.6220     2.1610 hn         1 KSG       0.343800
     49 HN2         -8.4480     2.8180     0.2220 hn         1 KSG       0.455800
     50 HN3         -7.3940     5.4370     2.1920 hn         1 KSG       0.318400
@<TRIPOS>BOND
     1     1     2 1   
     2     1    14 1   
     3     1    19 1   
     4     1    27 1   
     5     2     3 1   
     6     3     4 1   
     7     3    12 1   
     8     3    28 1   
     9     4     5 1   
    10     4     6 1   
    11     4    29 1   
    12     5    30 1   
    13     6     7 1   
    14     6     8 1   
    15     6    31 1   
    16     7    32 1   
    17     8     9 1   
    18     8    10 1   
    19     8    33 1   
    20     9    34 1   
    21    10    11 1   
    22    10    12 1   
    23    10    35 1   
    24    11    36 1   
    25    12    13 1   
    26    12    37 1   
    27    13    38 1   
    28    14    15 1   
    29    15    16 1   
    30    15    17 1   
    31    15    39 1   
    32    16    40 1   
    33    16    41 1   
    34    16    42 1   
    35    17    18 1   
    36    17    21 1   
    37    17    43 1   
    38    18    19 1   
    39    18    44 1   
    40    18    45 1   
    41    19    20 1   
    42    19    46 1   
    43    20    47 1   
    44    20    48 1   
    45    21    22 1   
    46    21    49 1   
    47    22    23 2   
    48    22    24 1   
    49    23    50 1   
    50    24    25 1   
    51    24    26 1   
@<TRIPOS>SUBSTRUCTURE
     1 KSG         1 TEMP              0 ****  ****    0 ROOT
