@<TRIPOS>MOLECULE
KSG
   50    51     1     0     0
SMALL
No Charge or Current Charge


@<TRIPOS>ATOM
      1 C1          -4.1230     1.9370     0.6150 c6         1 KSG       0.351300
      2 O1          -4.5370     0.6600     0.0800 os         1 KSG      -0.479000
      3 C2          -3.6260     0.0400    -0.8720 c6         1 KSG       0.144300
      4 C3          -4.4310    -0.9410    -1.7780 c6         1 KSG       0.147800
      5 O2          -5.5970    -0.2850    -2.3070 oh         1 KSG      -0.707000
      6 C4          -3.5300    -1.5720    -2.8970 c6         1 KSG       0.143800
      7 O3          -3.0370    -0.5920    -3.8340 oh         1 KSG      -0.710000
      8 C5          -2.3150    -2.3070    -2.2470 c6         1 KSG       0.099300
      9 O4          -1.4360    -2.8300    -3.2690 oh         1 KSG      -0.720000
     10 C6          -1.5190    -1.3480    -1.3070 c6         1 KSG       0.143800
     11 O5          -0.4170    -2.0560    -0.7100 oh         1 KSG      -0.710000
     12 C7          -2.4390    -0.7460    -0.2040 c6         1 KSG       0.147800
     13 O6          -1.6300     0.0510     0.6780 oh         1 KSG      -0.707000
     14 O7          -4.4480     2.9780    -0.3380 os         1 KSG      -0.489000
     15 C8          -5.8640     3.1630    -0.5900 c6         1 KSG       0.167300
     16 C9          -5.9670     4.2720    -1.6680 c3         1 KSG      -0.082100
     17 C10         -6.6350     3.5150     0.7310 c6         1 KSG       0.202500
     18 C11         -6.3370     2.4440     1.8120 c6         1 KSG      -0.107400
     19 C12         -4.8120     2.2340     2.0010 c6         1 KSG       0.157500
     20 N1          -4.2260     3.4140     2.7120 n8         1 KSG      -1.001200
     21 N2          -8.1010     3.5700     0.5160 nu         1 KSG      -0.951400
     22 C13         -8.8640     4.7250     0.7600 ce         1 KSG       0.497200
     23 N3          -8.3860     5.8570     0.3600 n2         1 KSG      -0.830100
     24 C14        -10.2560     4.5660     1.4930 c          1 KSG       0.641700
     25 O8         -10.6230     3.4360     1.8180 o          1 KSG      -0.692000
     26 O9         -10.9510     5.5560     1.7240 o          1 KSG      -0.692000
     27 H1          -3.0370     1.9390     0.7770 h2         1 KSG       0.063700
     28 H2          -3.2080     0.8300    -1.5140 h1         1 KSG       0.059700
     29 H3          -4.7650    -1.7690    -1.1340 h1         1 KSG       0.047700
     30 HO2         -5.8350     0.3710    -1.6110 ho         1 KSG       0.525000
     31 H4          -4.1340    -2.3220    -3.4280 h1         1 KSG       0.066200
     32 HO3         -2.2390    -1.0160    -4.2330 ho         1 KSG       0.512000
     33 H5          -2.7070    -3.1340    -1.6340 h1         1 KSG       0.048700
     34 HO4         -1.8230    -3.6810    -3.5880 ho         1 KSG       0.513000
     35 H6          -1.1320    -0.5170    -1.9170 h1         1 KSG       0.066200
     36 HO5         -0.0690    -2.6270    -1.4370 ho         1 KSG       0.512000
     37 H7          -2.8720    -1.5820     0.3660 h1         1 KSG       0.047700
     38 HO6         -0.7730    -0.4420     0.7190 ho         1 KSG       0.525000
     39 H8          -6.2730     2.2360    -1.0150 h1         1 KSG       0.033700
     40 H91         -7.0050     4.4140    -1.9910 hc         1 KSG       0.045367
     41 H92         -5.5970     5.2320    -1.2880 hc         1 KSG       0.045367
     42 H93         -5.3800     4.0110    -2.5560 hc         1 KSG       0.045367
     43 H10         -6.2610     4.4840     1.0980 h1         1 KSG       0.052700
     44 H111        -6.8010     2.7280     2.7670 hc         1 KSG       0.064200
     45 H112        -6.7910     1.4870     1.5210 hc         1 KSG       0.064200
     46 H12         -4.6650     1.3600     2.6550 h1         1 KSG       0.067700
     47 HN11        -4.1250     4.1760     2.0320 hn         1 KSG       0.399000
     48 HN12        -3.2550     3.1980     2.9680 hn         1 KSG       0.399000
     49 HN2         -8.6280     2.7360     0.7840 hn         1 KSG       0.511000
     50 HN3         -7.5180     5.6530    -0.1440 hn         1 KSG       0.318400
@<TRIPOS>BOND
     1     1     2 1   
     2     1    14 1   
     3     1    19 1   
     4     1    27 1   
     5     2     3 1   
     6     3     4 1   
     7     3    12 1   
     8     3    28 1   
     9     4     5 1   
    10     4     6 1   
    11     4    29 1   
    12     5    30 1   
    13     6     7 1   
    14     6     8 1   
    15     6    31 1   
    16     7    32 1   
    17     8     9 1   
    18     8    10 1   
    19     8    33 1   
    20     9    34 1   
    21    10    11 1   
    22    10    12 1   
    23    10    35 1   
    24    11    36 1   
    25    12    13 1   
    26    12    37 1   
    27    13    38 1   
    28    14    15 1   
    29    15    16 1   
    30    15    17 1   
    31    15    39 1   
    32    16    40 1   
    33    16    41 1   
    34    16    42 1   
    35    17    18 1   
    36    17    21 1   
    37    17    43 1   
    38    18    19 1   
    39    18    44 1   
    40    18    45 1   
    41    19    20 1   
    42    19    46 1   
    43    20    47 1   
    44    20    48 1   
    45    21    22 1   
    46    21    49 1   
    47    22    23 2   
    48    22    24 1   
    49    23    50 1   
    50    24    25 1   
    51    24    26 1   
@<TRIPOS>SUBSTRUCTURE
     1 KSG         1 TEMP              0 ****  ****    0 ROOT
