@<TRIPOS>MOLECULE
KSH
   60    63     1     0     0
SMALL
abcg2


@<TRIPOS>ATOM
      1 N1           1.5020     0.2330    -0.3390 na         1 KSH       0.080900
      2 C2           2.3650    -0.8180    -0.4110 cc         1 KSH       0.444000
      3 C3           3.7170    -0.4540    -0.4610 cd         1 KSH      -0.358000
      4 C4           4.0940     0.8830    -0.4580 cd         1 KSH       0.458300
      5 N5           3.2200     1.8810    -0.4030 nc         1 KSH      -0.752000
      6 C6           1.9400     1.5390    -0.3390 cc         1 KSH       0.491500
      7 C7           0.7920     2.3240    -0.2290 cd         1 KSH      -0.454800
      8 C8          -0.2680     1.3830    -0.1480 cd         1 KSH       0.695500
      9 N9           0.1560     0.1360    -0.2040 nc         1 KSH      -0.663100
     10 C10          0.6870     3.7730    -0.1810 c          1 KSH       0.669300
     11 O11         -0.4120     4.3330    -0.0840 o          1 KSH      -0.673100
     12 N12          1.8410     4.4540    -0.2460 nt         1 KSH      -0.600000
     13 N16         -1.5740     1.7390    -0.0190 nu         1 KSH      -0.887200
     14 C17         -2.7110     0.9540     0.0500 ca         1 KSH       0.394000
     15 C18         -2.6900    -0.4390     0.0170 ca         1 KSH      -0.238000
     16 C19         -3.8930    -1.1380     0.0920 ca         1 KSH       0.202100
     17 C20         -5.1170    -0.4820     0.2030 ca         1 KSH      -0.323000
     18 C21         -5.1150     0.9140     0.2370 ca         1 KSH       0.202100
     19 C22         -3.9290     1.6300     0.1610 ca         1 KSH      -0.238000
     20 O26         -6.2380     1.6490     0.3460 os         1 KSH      -0.344600
     21 C27         -7.4830     0.9870     0.4480 c3         1 KSH       0.151900
     22 O31         -3.7770    -2.4790     0.0510 os         1 KSH      -0.344600
     23 C32         -4.9410    -3.2720     0.1540 c3         1 KSH       0.151900
     24 C37          5.5450     1.2600    -0.4780 c3         1 KSH      -0.134700
     25 C38          6.0180     1.7040     0.9060 c3         1 KSH      -0.085100
     26 N42          1.9250    -2.0770    -0.4190 nh         1 KSH      -0.798400
     27 C43          0.6180    -2.5460    -0.8950 c5         1 KSH       0.237800
     28 C44          0.9430    -3.9230    -1.4490 c5         1 KSH      -0.101400
     29 C45          1.9920    -4.4360    -0.4780 c5         1 KSH      -0.088400
     30 C46          2.8410    -3.2010    -0.1640 c5         1 KSH       0.233500
     31 C53          3.3930    -3.1970     1.2520 c3         1 KSH       0.147600
     32 O55          2.3230    -3.1450     2.1610 oh         1 KSH      -0.644000
     33 H3           4.4770    -1.2140    -0.5380 ha         1 KSH       0.132000
     34 HN12         2.7260     3.9710    -0.3140 hn         1 KSH       0.325500
     35 HN1A         1.8350     5.4600    -0.2170 hn         1 KSH       0.325500
     36 HN16        -1.7020     2.7430     0.0150 hn         1 KSH       0.544000
     37 H18         -1.7660    -0.9860    -0.0660 ha         1 KSH       0.144500
     38 H20         -6.0400    -1.0400     0.2610 ha         1 KSH       0.119000
     39 H22         -3.9570     2.7130     0.1860 ha         1 KSH       0.144500
     40 H27         -7.5310     0.3400     1.3270 h1         1 KSH       0.038367
     41 H27A        -8.2380     1.7630     0.5430 h1         1 KSH       0.038367
     42 H27B        -7.7040     0.3910    -0.4410 h1         1 KSH       0.038367
     43 H32         -5.4630    -3.1130     1.1020 h1         1 KSH       0.038367
     44 H32A        -5.6400    -3.0850    -0.6650 h1         1 KSH       0.038367
     45 H32B        -4.6140    -4.3070     0.1050 h1         1 KSH       0.038367
     46 H37          6.1450     0.4160    -0.8210 hc         1 KSH       0.057200
     47 H37A         5.6900     2.0730    -1.1920 hc         1 KSH       0.057200
     48 H38          5.4450     2.5620     1.2570 hc         1 KSH       0.040367
     49 H38A         5.9080     0.9010     1.6350 hc         1 KSH       0.040367
     50 H38B         7.0690     1.9900     0.8770 hc         1 KSH       0.040367
     51 H43         -0.0930    -2.6160    -0.0690 h1         1 KSH       0.079200
     52 H43A         0.2050    -1.8790    -1.6460 h1         1 KSH       0.079200
     53 H44          0.0590    -4.5580    -1.5010 hc         1 KSH       0.058700
     54 H44A         1.3550    -3.8350    -2.4570 hc         1 KSH       0.058700
     55 H45          1.5140    -4.8110     0.4280 hc         1 KSH       0.064700
     56 H45A         2.6060    -5.2370    -0.8890 hc         1 KSH       0.064700
     57 H46          3.6870    -3.1610    -0.8590 h1         1 KSH       0.057700
     58 H53          3.9950    -4.1080     1.3630 h1         1 KSH       0.028700
     59 H53A         4.0790    -2.3530     1.3910 h1         1 KSH       0.028700
     60 HO55         2.6870    -3.1710     3.0500 ho         1 KSH       0.447000
@<TRIPOS>BOND
     1     1     2 1   
     2     1     6 1   
     3     1     9 1   
     4     2     3 2   
     5     2    26 1   
     6     3     4 1   
     7     3    33 1   
     8     4     5 2   
     9     4    24 1   
    10     5     6 1   
    11     6     7 2   
    12     7     8 1   
    13     7    10 1   
    14     8     9 2   
    15     8    13 1   
    16    10    11 2   
    17    10    12 1   
    18    12    34 1   
    19    12    35 1   
    20    13    14 1   
    21    13    36 1   
    22    14    15 ar  
    23    14    19 ar  
    24    15    16 ar  
    25    15    37 1   
    26    16    17 ar  
    27    16    22 1   
    28    17    18 ar  
    29    17    38 1   
    30    18    19 ar  
    31    18    20 1   
    32    19    39 1   
    33    20    21 1   
    34    21    40 1   
    35    21    41 1   
    36    21    42 1   
    37    22    23 1   
    38    23    43 1   
    39    23    44 1   
    40    23    45 1   
    41    24    25 1   
    42    24    46 1   
    43    24    47 1   
    44    25    48 1   
    45    25    49 1   
    46    25    50 1   
    47    26    27 1   
    48    26    30 1   
    49    27    28 1   
    50    27    51 1   
    51    27    52 1   
    52    28    29 1   
    53    28    53 1   
    54    28    54 1   
    55    29    30 1   
    56    29    55 1   
    57    29    56 1   
    58    30    31 1   
    59    30    57 1   
    60    31    32 1   
    61    31    58 1   
    62    31    59 1   
    63    32    60 1   
@<TRIPOS>SUBSTRUCTURE
     1 KSH         1 TEMP              0 ****  ****    0 ROOT
