@<TRIPOS>MOLECULE
KSH
   60    63     1     0     0
SMALL
No Charge or Current Charge


@<TRIPOS>ATOM
      1 N1           1.4110     0.1430    -0.2560 na         1 KSH       0.080900
      2 C2           2.3880    -0.8810    -0.2550 cc         1 KSH       0.444000
      3 C3           3.6860    -0.3890    -0.3690 cd         1 KSH      -0.358000
      4 C4           3.9970     1.0100    -0.4860 cd         1 KSH       0.458300
      5 N5           3.0780     1.9610    -0.4850 nc         1 KSH      -0.752000
      6 C6           1.8220     1.4520    -0.3640 cc         1 KSH       0.491500
      7 C7           0.6610     2.1620    -0.3090 cd         1 KSH      -0.454800
      8 C8          -0.3500     1.2030    -0.1710 cd         1 KSH       0.695500
      9 N9           0.0430    -0.0460    -0.1150 nc         1 KSH      -0.663100
     10 C10          0.4820     3.6060    -0.3660 c          1 KSH       0.669300
     11 O11         -0.6120     4.1370    -0.2890 o          1 KSH      -0.673100
     12 N12          1.5820     4.3540    -0.5050 nt         1 KSH      -0.600000
     13 N16         -1.6440     1.5570    -0.0730 nu         1 KSH      -0.887200
     14 C17         -2.8660     0.9000     0.0220 ca         1 KSH       0.394000
     15 C18         -3.0280    -0.4720    -0.2170 ca         1 KSH      -0.238000
     16 C19         -4.2880    -1.0710    -0.1150 ca         1 KSH       0.202100
     17 C20         -5.4100    -0.2900     0.2240 ca         1 KSH      -0.323000
     18 C21         -5.2530     1.0890     0.4540 ca         1 KSH       0.202100
     19 C22         -3.9860     1.6720     0.3480 ca         1 KSH      -0.238000
     20 O26         -6.3090     1.9110     0.7850 os         1 KSH      -0.344600
     21 C27         -7.6540     1.4190     0.9220 c3         1 KSH       0.151900
     22 O31         -4.3740    -2.4240    -0.3630 os         1 KSH      -0.344600
     23 C32         -5.6180    -3.1430    -0.2890 c3         1 KSH       0.151900
     24 C37          5.4250     1.4760    -0.6040 c3         1 KSH      -0.134700
     25 C38          6.1470     1.5470     0.7580 c3         1 KSH      -0.085100
     26 N42          2.0860    -2.2460    -0.1280 nh         1 KSH      -0.798400
     27 C43          1.0040    -2.7650    -1.0130 c5         1 KSH       0.237800
     28 C44          1.6290    -4.0950    -1.5130 c5         1 KSH      -0.101400
     29 C45          2.4410    -4.5480    -0.2700 c5         1 KSH      -0.088400
     30 C46          3.1880    -3.2340     0.0930 c5         1 KSH       0.233500
     31 C53          3.8360    -3.2230     1.5220 c3         1 KSH       0.147600
     32 O55          2.8840    -3.4700     2.5770 oh         1 KSH      -0.644000
     33 H3           4.5290    -1.0620    -0.3800 ha         1 KSH       0.132000
     34 HN12         2.4780     3.8870    -0.5600 hn         1 KSH       0.325500
     35 HN1A         1.5050     5.3570    -0.5460 hn         1 KSH       0.325500
     36 HN16        -1.7040     2.5760    -0.0630 hn         1 KSH       0.544000
     37 H18         -2.1870    -1.0940    -0.4950 ha         1 KSH       0.144500
     38 H20         -6.3880    -0.7490     0.3040 ha         1 KSH       0.119000
     39 H22         -3.8800     2.7370     0.5290 ha         1 KSH       0.144500
     40 H27         -7.7130     0.6590     1.7110 h1         1 KSH       0.038367
     41 H27A        -8.3330     2.2390     1.1890 h1         1 KSH       0.038367
     42 H27B        -8.0060     0.9800    -0.0200 h1         1 KSH       0.038367
     43 H32         -6.0470    -3.0770     0.7190 h1         1 KSH       0.038367
     44 H32A        -6.3430    -2.7430    -1.0090 h1         1 KSH       0.038367
     45 H32B        -5.4580    -4.2040    -0.5210 h1         1 KSH       0.038367
     46 H37          5.9780     0.7970    -1.2630 hc         1 KSH       0.057200
     47 H37A         5.4700     2.4630    -1.0810 hc         1 KSH       0.057200
     48 H38          5.6390     2.2500     1.4290 hc         1 KSH       0.040367
     49 H38A         6.1670     0.5620     1.2390 hc         1 KSH       0.040367
     50 H38B         7.1820     1.8860     0.6260 hc         1 KSH       0.040367
     51 H43          0.0820    -2.9460    -0.4410 h1         1 KSH       0.079200
     52 H43A         0.7590    -2.0970    -1.8520 h1         1 KSH       0.079200
     53 H44          0.8680    -4.8240    -1.8140 hc         1 KSH       0.058700
     54 H44A         2.2820    -3.9250    -2.3770 hc         1 KSH       0.058700
     55 H45          1.7790    -4.8820     0.5380 hc         1 KSH       0.064700
     56 H45A         3.1310    -5.3700    -0.4910 hc         1 KSH       0.064700
     57 H46          3.9950    -3.0900    -0.6390 h1         1 KSH       0.057700
     58 H53          4.6240    -3.9880     1.5450 h1         1 KSH       0.028700
     59 H53A         4.3240    -2.2520     1.6790 h1         1 KSH       0.028700
     60 HO55         3.3650    -3.3680     3.4280 ho         1 KSH       0.447000
@<TRIPOS>BOND
     1     1     2 1   
     2     1     6 1   
     3     1     9 1   
     4     2     3 2   
     5     2    26 1   
     6     3     4 1   
     7     3    33 1   
     8     4     5 2   
     9     4    24 1   
    10     5     6 1   
    11     6     7 2   
    12     7     8 1   
    13     7    10 1   
    14     8     9 2   
    15     8    13 1   
    16    10    11 2   
    17    10    12 1   
    18    12    34 1   
    19    12    35 1   
    20    13    14 1   
    21    13    36 1   
    22    14    15 ar  
    23    14    19 ar  
    24    15    16 ar  
    25    15    37 1   
    26    16    17 ar  
    27    16    22 1   
    28    17    18 ar  
    29    17    38 1   
    30    18    19 ar  
    31    18    20 1   
    32    19    39 1   
    33    20    21 1   
    34    21    40 1   
    35    21    41 1   
    36    21    42 1   
    37    22    23 1   
    38    23    43 1   
    39    23    44 1   
    40    23    45 1   
    41    24    25 1   
    42    24    46 1   
    43    24    47 1   
    44    25    48 1   
    45    25    49 1   
    46    25    50 1   
    47    26    27 1   
    48    26    30 1   
    49    27    28 1   
    50    27    51 1   
    51    27    52 1   
    52    28    29 1   
    53    28    53 1   
    54    28    54 1   
    55    29    30 1   
    56    29    55 1   
    57    29    56 1   
    58    30    31 1   
    59    30    57 1   
    60    31    32 1   
    61    31    58 1   
    62    31    59 1   
    63    32    60 1   
@<TRIPOS>SUBSTRUCTURE
     1 KSH         1 TEMP              0 ****  ****    0 ROOT
