@<TRIPOS>MOLECULE
KSI
   46    47     1     0     0
SMALL
No Charge or Current Charge


@<TRIPOS>ATOM
      1 N1           9.5870    -2.4730    22.2780 n3         1 KSI      -0.722600
      2 C4           8.5680    -3.5750    22.2170 c6         1 KSI       0.166500
      3 C5           7.3460    -3.1620    21.3280 c6         1 KSI       0.092000
      4 C6           8.8450    -1.6530    19.9960 c6         1 KSI       0.104000
      5 C7          10.0150    -2.1230    20.8930 c6         1 KSI       0.141800
      6 C8          10.7580    -2.7650    23.1550 c3         1 KSI       0.208100
      7 C10         11.4150    -0.3930    23.8000 ca         1 KSI      -0.087000
      8 C13         14.0050    -0.7460    22.7780 ca         1 KSI       0.122000
      9 C16          6.9460    -1.7520    17.7020 c3         1 KSI      -0.172100
     10 O            5.4990    -2.8330    19.2690 o          1 KSI      -0.616100
     11 N            7.6600    -2.5580    19.9980 n          1 KSI      -0.415800
     12 C3           8.0680    -4.0390    23.6330 c3         1 KSI      -0.074400
     13 C1           6.9690    -5.1410    23.6830 c3         1 KSI      -0.063700
     14 C2           7.3940    -6.4390    22.9550 c3         1 KSI      -0.090100
     15 C            6.5580    -5.4430    25.1430 c3         1 KSI      -0.090100
     16 C9          11.7750    -1.6280    23.2250 ca         1 KSI      -0.079300
     17 C14         13.0770    -1.7990    22.7140 ca         1 KSI      -0.103000
     18 C12         13.6420     0.4830    23.3530 ca         1 KSI      -0.101000
     19 C11         12.3450     0.6600    23.8640 ca         1 KSI      -0.106000
     20 H2           9.0360    -4.4490    21.7400 h1         1 KSI       0.034700
     21 H3           6.7340    -2.4430    21.8910 h1         1 KSI       0.069700
     22 H4           6.7230    -4.0510    21.1610 h1         1 KSI       0.069700
     23 H5           9.2350    -1.5380    18.9770 h1         1 KSI       0.054700
     24 H6           8.5220    -0.6590    20.3360 h1         1 KSI       0.054700
     25 H7          10.4920    -2.9930    20.4180 h1         1 KSI       0.044200
     26 H8          10.7630    -1.3180    20.9020 h1         1 KSI       0.044200
     27 H9          10.4300    -2.9420    24.1870 h1         1 KSI       0.044700
     28 H10         11.2620    -3.6810    22.8170 h1         1 KSI       0.044700
     29 H11         10.4100    -0.2510    24.1910 ha         1 KSI       0.129000
     30 H12          6.0980    -1.7830    17.0080 hc         1 KSI       0.060700
     31 H13          7.2790    -0.7210    17.8690 hc         1 KSI       0.060700
     32 H14          7.8350    -2.2280    17.2730 hc         1 KSI       0.060700
     33 H15          8.9130    -4.4270    24.2120 hc         1 KSI       0.046200
     34 H16          7.7020    -3.1610    24.1810 hc         1 KSI       0.046200
     35 H17          6.0690    -4.7590    23.1850 hc         1 KSI       0.049700
     36 H18          6.6080    -7.2010    23.0330 hc         1 KSI       0.034867
     37 H19          7.5720    -6.2580    21.8890 hc         1 KSI       0.034867
     38 H20          8.3120    -6.8490    23.3930 hc         1 KSI       0.034867
     39 H21          6.2070    -4.5330    25.6440 hc         1 KSI       0.034867
     40 H22          5.7440    -6.1780    25.1730 hc         1 KSI       0.034867
     41 H23          7.4040    -5.8450    25.7130 hc         1 KSI       0.034867
     42 H24         13.3700    -2.7450    22.2640 ha         1 KSI       0.127000
     43 H25         14.3640     1.2940    23.4000 ha         1 KSI       0.130000
     44 H26         12.0600     1.6110    24.3080 ha         1 KSI       0.119000
     45 C15          6.6240    -2.4030    19.0490 c          1 KSI       0.602100
     46 Cl          15.6280    -0.9680    22.1360 cl         1 KSI      -0.216000
@<TRIPOS>BOND
     1     1     2 1   
     2     1     5 1   
     3     1     6 1   
     4     2     3 1   
     5     2    12 1   
     6     2    20 1   
     7     3    11 1   
     8     3    21 1   
     9     3    22 1   
    10     4     5 1   
    11     4    11 1   
    12     4    23 1   
    13     4    24 1   
    14     5    25 1   
    15     5    26 1   
    16     6    16 1   
    17     6    27 1   
    18     6    28 1   
    19     7    16 ar  
    20     7    19 ar  
    21     7    29 1   
    22     8    17 ar  
    23     8    18 ar  
    24     8    46 1   
    25     9    30 1   
    26     9    31 1   
    27     9    32 1   
    28     9    45 1   
    29    10    45 2   
    30    11    45 1   
    31    12    13 1   
    32    12    33 1   
    33    12    34 1   
    34    13    14 1   
    35    13    15 1   
    36    13    35 1   
    37    14    36 1   
    38    14    37 1   
    39    14    38 1   
    40    15    39 1   
    41    15    40 1   
    42    15    41 1   
    43    16    17 ar  
    44    17    42 1   
    45    18    19 ar  
    46    18    43 1   
    47    19    44 1   
@<TRIPOS>SUBSTRUCTURE
     1 KSI         1 TEMP              0 ****  ****    0 ROOT
