@<TRIPOS>MOLECULE
KSI
   46    47     1     0     0
SMALL
abcg2


@<TRIPOS>ATOM
      1 N1           9.5760    -2.4540    22.1900 n3         1 KSI      -0.722600
      2 C4           8.5110    -3.4790    22.1720 c6         1 KSI       0.166500
      3 C5           7.2660    -2.8840    21.5110 c6         1 KSI       0.092000
      4 C6           8.6220    -1.3690    20.1900 c6         1 KSI       0.104000
      5 C7           9.8560    -1.9690    20.8390 c6         1 KSI       0.141800
      6 C8          10.8200    -2.9080    22.8170 c3         1 KSI       0.208100
      7 C10         11.3960    -0.6780    23.8430 ca         1 KSI      -0.087000
      8 C13         13.9390    -0.7500    22.7810 ca         1 KSI       0.122000
      9 C16          7.2420    -2.1840    17.7590 c3         1 KSI      -0.172100
     10 O            5.9990    -3.6560    19.1750 o          1 KSI      -0.616100
     11 N            7.5490    -2.3500    20.1880 n          1 KSI      -0.415800
     12 C3           8.1660    -3.9660    23.5830 c3         1 KSI      -0.074400
     13 C1           6.9710    -4.9250    23.7000 c3         1 KSI      -0.063700
     14 C2           7.1560    -6.1900    22.8570 c3         1 KSI      -0.090100
     15 C            6.7520    -5.2870    25.1700 c3         1 KSI      -0.090100
     16 C9          11.7810    -1.7700    23.0620 ca         1 KSI      -0.079300
     17 C14         13.0660    -1.8010    22.5280 ca         1 KSI      -0.103000
     18 C12         13.5670     0.3390    23.5530 ca         1 KSI      -0.101000
     19 C11         12.2800     0.3640    24.0840 ca         1 KSI      -0.106000
     20 H2           8.8420    -4.3350    21.5600 h1         1 KSI       0.034700
     21 H3           6.8830    -2.0760    22.1450 h1         1 KSI       0.069700
     22 H4           6.4950    -3.6370    21.4030 h1         1 KSI       0.069700
     23 H5           8.8580    -1.0530    19.1800 h1         1 KSI       0.054700
     24 H6           8.2980    -0.4900    20.7580 h1         1 KSI       0.054700
     25 H7          10.2380    -2.7850    20.2000 h1         1 KSI       0.044200
     26 H8          10.6320    -1.2060    20.8940 h1         1 KSI       0.044200
     27 H9          10.5830    -3.3590    23.7780 h1         1 KSI       0.044700
     28 H10         11.3150    -3.6820    22.2100 h1         1 KSI       0.044700
     29 H11         10.3950    -0.6480    24.2530 ha         1 KSI       0.129000
     30 H12          6.5880    -2.6160    17.0060 hc         1 KSI       0.060700
     31 H13          7.1140    -1.1000    17.7660 hc         1 KSI       0.060700
     32 H14          8.2790    -2.3960    17.4940 hc         1 KSI       0.060700
     33 H15          9.0270    -4.4820    24.0110 hc         1 KSI       0.046200
     34 H16          7.9810    -3.0870    24.2090 hc         1 KSI       0.046200
     35 H17          6.0690    -4.4130    23.3520 hc         1 KSI       0.049700
     36 H18          6.3190    -6.8760    23.0060 hc         1 KSI       0.034867
     37 H19          7.2180    -5.9680    21.7910 hc         1 KSI       0.034867
     38 H20          8.0740    -6.7110    23.1450 hc         1 KSI       0.034867
     39 H21          6.5980    -4.3920    25.7780 hc         1 KSI       0.034867
     40 H22          5.8780    -5.9310    25.2870 hc         1 KSI       0.034867
     41 H23          7.6190    -5.8210    25.5700 hc         1 KSI       0.034867
     42 H24         13.3810    -2.6340    21.9140 ha         1 KSI       0.127000
     43 H25         14.2630     1.1460    23.7350 ha         1 KSI       0.130000
     44 H26         11.9740     1.2060    24.6920 ha         1 KSI       0.119000
     45 C15          6.8810    -2.7910    19.0980 c          1 KSI       0.602100
     46 CL          15.5540    -0.8040    22.0960 cl         1 KSI      -0.216000
@<TRIPOS>BOND
     1     1     2 1   
     2     1     5 1   
     3     1     6 1   
     4     2     3 1   
     5     2    12 1   
     6     2    20 1   
     7     3    11 1   
     8     3    21 1   
     9     3    22 1   
    10     4     5 1   
    11     4    11 1   
    12     4    23 1   
    13     4    24 1   
    14     5    25 1   
    15     5    26 1   
    16     6    16 1   
    17     6    27 1   
    18     6    28 1   
    19     7    16 ar  
    20     7    19 ar  
    21     7    29 1   
    22     8    17 ar  
    23     8    18 ar  
    24     8    46 1   
    25     9    30 1   
    26     9    31 1   
    27     9    32 1   
    28     9    45 1   
    29    10    45 2   
    30    11    45 1   
    31    12    13 1   
    32    12    33 1   
    33    12    34 1   
    34    13    14 1   
    35    13    15 1   
    36    13    35 1   
    37    14    36 1   
    38    14    37 1   
    39    14    38 1   
    40    15    39 1   
    41    15    40 1   
    42    15    41 1   
    43    16    17 ar  
    44    17    42 1   
    45    18    19 ar  
    46    18    43 1   
    47    19    44 1   
@<TRIPOS>SUBSTRUCTURE
     1 KSI         1 TEMP              0 ****  ****    0 ROOT
