@<TRIPOS>MOLECULE
KSJ
   33    34     1     0     0
SMALL
bcc


@<TRIPOS>ATOM
      1 C11          0.4120    -0.8670    -0.0180 c5         1 KSJ      -0.166700
      2 C12          1.8570    -0.4210     0.2270 c5         1 KSJ      -0.022700
      3 C14          1.7620    -2.7960     0.6890 c5         1 KSJ      -0.080400
      4 C15          2.6200    -1.7260     0.0090 c5         1 KSJ      -0.070400
      5 C01         -4.2930     0.8500    -0.0130 ca         1 KSJ      -0.206000
      6 C02         -4.5980     0.0160    -1.0690 ca         1 KSJ      -0.066000
      7 C03         -3.6300    -0.8240    -1.6200 ca         1 KSJ      -0.205000
      8 C04         -2.3540    -0.8090    -1.1010 ca         1 KSJ      -0.035000
      9 C05         -2.0050     0.0270    -0.0310 ca         1 KSJ      -0.283600
     10 C06         -3.0010     0.8650     0.5210 ca         1 KSJ       0.217100
     11 C07         -0.6450     0.0510     0.5280 c          1 KSJ       0.611700
     12 C08          2.2930     0.7240    -0.6690 c3         1 KSJ      -0.204400
     13 C09          3.7390     1.2090    -0.4660 c          1 KSJ       0.928600
     14 C13          0.3100    -2.2710     0.6310 c5         1 KSJ      -0.067400
     15 O10         -2.7590     1.6820     1.5420 oh         1 KSJ      -0.519100
     16 O16          4.2420     1.0610     0.6650 o          1 KSJ      -0.844300
     17 O17         -0.3830     0.7970     1.4720 o          1 KSJ      -0.559100
     18 O18          4.2850     1.7500    -1.4510 o          1 KSJ      -0.844300
     19 H1           0.2800    -0.9760    -1.0980 hc         1 KSJ       0.059700
     20 H2           1.9710    -0.1270     1.2750 hc         1 KSJ       0.080700
     21 H3           1.8610    -3.7710     0.2110 hc         1 KSJ       0.029200
     22 H4           2.0680    -2.9240     1.7290 hc         1 KSJ       0.029200
     23 H5           2.6960    -1.9290    -1.0650 hc         1 KSJ       0.053700
     24 H6           3.6360    -1.6770     0.4000 hc         1 KSJ       0.053700
     25 H9          -3.8750    -1.4750    -2.4480 ha         1 KSJ       0.128000
     26 H10         -1.6110    -1.4620    -1.5380 ha         1 KSJ       0.137000
     27 H11          2.1470     0.4430    -1.7180 hc         1 KSJ       0.020700
     28 H12          1.6370     1.5880    -0.5040 hc         1 KSJ       0.020700
     29 H13         -0.1140    -2.2050     1.6350 hc         1 KSJ       0.029700
     30 H14         -0.3480    -2.9220     0.0540 hc         1 KSJ       0.029700
     31 H15         -1.8110     1.5630     1.7870 ho         1 KSJ       0.484000
     32 H7          -5.0450     1.5010     0.4140 ha         1 KSJ       0.140000
     33 H8          -5.6030     0.0180    -1.4700 ha         1 KSJ       0.121000
@<TRIPOS>BOND
     1     1     2 1   
     2     1    11 1   
     3     1    14 1   
     4     1    19 1   
     5     2     4 1   
     6     2    12 1   
     7     2    20 1   
     8     3     4 1   
     9     3    14 1   
    10     3    21 1   
    11     3    22 1   
    12     4    23 1   
    13     4    24 1   
    14     5     6 ar  
    15     5    10 ar  
    16     5    32 1   
    17     6     7 ar  
    18     6    33 1   
    19     7     8 ar  
    20     7    25 1   
    21     8     9 ar  
    22     8    26 1   
    23     9    10 ar  
    24     9    11 1   
    25    10    15 1   
    26    11    17 2   
    27    12    13 1   
    28    12    27 1   
    29    12    28 1   
    30    13    16 1   
    31    13    18 1   
    32    14    29 1   
    33    14    30 1   
    34    15    31 1   
@<TRIPOS>SUBSTRUCTURE
     1 KSJ         1 TEMP              0 ****  ****    0 ROOT
