@<TRIPOS>MOLECULE
KSJ
   33    34     1     0     0
SMALL
No Charge or Current Charge


@<TRIPOS>ATOM
      1 C11          0.3590    -1.1100    -0.0720 c5         1 KSJ      -0.166700
      2 C12          1.7560    -0.4590     0.1770 c5         1 KSJ      -0.022700
      3 C14          2.1140    -2.8030     0.3820 c5         1 KSJ      -0.080400
      4 C15          2.6670    -1.5790    -0.3890 c5         1 KSJ      -0.070400
      5 C01         -4.0110     1.2230    -0.0630 ca         1 KSJ      -0.188000
      6 C02         -4.4770     0.4250    -1.1180 ca         1 KSJ      -0.048000
      7 C03         -3.7310    -0.6930    -1.5200 ca         1 KSJ      -0.187000
      8 C04         -2.5180    -1.0040    -0.8840 ca         1 KSJ      -0.017000
      9 C05         -2.0250    -0.1860     0.1630 ca         1 KSJ      -0.283600
     10 C06         -2.8040     0.9150     0.5800 ca         1 KSJ       0.217100
     11 C07         -0.7200    -0.4870     0.8650 c          1 KSJ       0.611700
     12 C08          1.9260     0.9380    -0.4800 c3         1 KSJ      -0.204400
     13 C09          3.3130     1.5300    -0.1720 c          1 KSJ       0.718000
     14 C13          0.5690    -2.6240     0.2820 c5         1 KSJ      -0.067400
     15 O10         -2.4020     1.6960     1.6200 oh         1 KSJ      -0.558100
     16 O16          3.4520     2.1570     0.8680 o          1 KSJ      -0.739000
     17 O17         -0.5720    -0.2380     2.0570 o          1 KSJ      -0.559100
     18 O18          4.2230     1.3200    -0.9600 o          1 KSJ      -0.739000
     19 H1           0.0670    -1.0140    -1.1230 hc         1 KSJ       0.059700
     20 H2           1.9480    -0.3290     1.2510 hc         1 KSJ       0.080700
     21 H3           2.4510    -3.7520    -0.0490 hc         1 KSJ       0.029200
     22 H4           2.4440    -2.7900     1.4270 hc         1 KSJ       0.029200
     23 H5           2.5590    -1.6930    -1.4740 hc         1 KSJ       0.053700
     24 H6           3.7290    -1.4080    -0.1780 hc         1 KSJ       0.053700
     25 H9          -4.0970    -1.3250    -2.3260 ha         1 KSJ       0.110000
     26 H10         -1.9790    -1.8930    -1.2060 ha         1 KSJ       0.119000
     27 H11          1.8030     0.8000    -1.5620 hc         1 KSJ       0.020700
     28 H12          1.1500     1.5730    -0.0360 hc         1 KSJ       0.020700
     29 H13          0.0840    -2.9110     1.2230 hc         1 KSJ       0.029700
     30 H14          0.1440    -3.2660    -0.4970 hc         1 KSJ       0.029700
     31 H15         -1.6690     1.2080     2.0700 ho         1 KSJ       0.523000
     32 H7          -4.5940     2.0800     0.2640 ha         1 KSJ       0.122000
     33 H8          -5.4160     0.6640    -1.6120 ha         1 KSJ       0.103000
@<TRIPOS>BOND
     1     1     2 1   
     2     1    11 1   
     3     1    14 1   
     4     1    19 1   
     5     2     4 1   
     6     2    12 1   
     7     2    20 1   
     8     3     4 1   
     9     3    14 1   
    10     3    21 1   
    11     3    22 1   
    12     4    23 1   
    13     4    24 1   
    14     5     6 ar  
    15     5    10 ar  
    16     5    32 1   
    17     6     7 ar  
    18     6    33 1   
    19     7     8 ar  
    20     7    25 1   
    21     8     9 ar  
    22     8    26 1   
    23     9    10 ar  
    24     9    11 1   
    25    10    15 1   
    26    11    17 2   
    27    12    13 1   
    28    12    27 1   
    29    12    28 1   
    30    13    16 1   
    31    13    18 1   
    32    14    29 1   
    33    14    30 1   
    34    15    31 1   
@<TRIPOS>SUBSTRUCTURE
     1 KSJ         1 TEMP              0 ****  ****    0 ROOT
