@<TRIPOS>MOLECULE
KSL
   42    45     1     0     0
SMALL
No Charge or Current Charge


@<TRIPOS>ATOM
      1 C8          -3.6200     1.0560    -2.1840 c3         1 KSL      -0.048300
      2 C7          -4.0050     0.1070    -1.0490 ca         1 KSL      -0.062800
      3 C5          -5.1840    -0.6550    -1.1680 ca         1 KSL      -0.109500
      4 C4          -5.5640    -1.5400    -0.1500 ca         1 KSL      -0.102000
      5 C3          -4.7740    -1.6680     1.0010 ca         1 KSL      -0.109500
      6 C6          -3.1940    -0.0290     0.1070 ca         1 KSL       0.275000
      7 C2          -3.5920    -0.9150     1.1450 ca         1 KSL      -0.062800
      8 C1          -2.7870    -1.0630     2.4370 c3         1 KSL      -0.048300
      9 N9          -2.0260     0.7390     0.2220 nu         1 KSL      -0.949900
     10 C10         -0.7180     0.3870     0.2000 cc         1 KSL       0.683900
     11 C18          0.2340     1.4170     0.2900 cc         1 KSL      -0.256000
     12 C17          0.1580     2.7880     0.3860 cd         1 KSL      -0.052400
     13 N16          1.4550     3.3120     0.3300 nd         1 KSL      -0.559300
     14 C15          2.2890     2.2680     0.2180 cc         1 KSL       0.350700
     15 N14          1.5310     1.1280     0.2930 na         1 KSL       0.093200
     16 C13          1.9620    -0.1580    -0.0160 cc         1 KSL      -0.151000
     17 C12          0.9630    -1.1490    -0.0790 cd         1 KSL       0.369900
     18 N11         -0.4210    -0.8820     0.0400 nd         1 KSL      -0.760000
     19 C19          3.3600    -0.5790    -0.1300 ca         1 KSL      -0.034000
     20 C24          3.7630    -1.4280    -1.1810 ca         1 KSL      -0.095500
     21 C23          5.1030    -1.8380    -1.2930 ca         1 KSL      -0.109500
     22 C22          6.0510    -1.4080    -0.3510 ca         1 KSL      -0.100000
     23 C21          5.6580    -0.5700     0.7050 ca         1 KSL      -0.109500
     24 C20          4.3180    -0.1580     0.8160 ca         1 KSL      -0.095500
     25 H8          -3.6420     2.1000    -1.8500 hc         1 KSL       0.046033
     26 H8A         -2.6110     0.8390    -2.5550 hc         1 KSL       0.046033
     27 H8B         -4.3040     0.9710    -3.0370 hc         1 KSL       0.046033
     28 H5          -5.8100    -0.5620    -2.0530 ha         1 KSL       0.114500
     29 H4          -6.4760    -2.1250    -0.2510 ha         1 KSL       0.115000
     30 H3          -5.0860    -2.3520     1.7870 ha         1 KSL       0.114500
     31 H1          -1.9370    -1.7400     2.2950 hc         1 KSL       0.046033
     32 H1A         -2.3990    -0.0990     2.7860 hc         1 KSL       0.046033
     33 H1B         -3.4000    -1.4730     3.2480 hc         1 KSL       0.046033
     34 HN9         -2.1260     1.6950    -0.0950 hn         1 KSL       0.505000
     35 H17         -0.7280     3.4230     0.4510 h4         1 KSL       0.225000
     36 H15          3.3650     2.2830     0.0990 h5         1 KSL       0.076800
     37 H12          1.2150    -2.1910    -0.2340 h4         1 KSL       0.031100
     38 H24          3.0400    -1.7620    -1.9220 ha         1 KSL       0.119500
     39 H23          5.4050    -2.4890    -2.1110 ha         1 KSL       0.117000
     40 H22          7.0880    -1.7270    -0.4370 ha         1 KSL       0.116000
     41 H21          6.3900    -0.2410     1.4400 ha         1 KSL       0.117000
     42 H20          4.0250     0.4770     1.6490 ha         1 KSL       0.119500
@<TRIPOS>BOND
     1     1     2 1   
     2     1    25 1   
     3     1    26 1   
     4     1    27 1   
     5     2     3 ar  
     6     2     6 ar  
     7     3     4 ar  
     8     3    28 1   
     9     4     5 ar  
    10     4    29 1   
    11     5     7 ar  
    12     5    30 1   
    13     6     7 ar  
    14     6     9 1   
    15     7     8 1   
    16     8    31 1   
    17     8    32 1   
    18     8    33 1   
    19     9    10 1   
    20     9    34 1   
    21    10    11 1   
    22    10    18 2   
    23    11    12 2   
    24    11    15 1   
    25    12    13 1   
    26    12    35 1   
    27    13    14 2   
    28    14    15 1   
    29    14    36 1   
    30    15    16 1   
    31    16    17 2   
    32    16    19 1   
    33    17    18 1   
    34    17    37 1   
    35    19    20 ar  
    36    19    24 ar  
    37    20    21 ar  
    38    20    38 1   
    39    21    22 ar  
    40    21    39 1   
    41    22    23 ar  
    42    22    40 1   
    43    23    24 ar  
    44    23    41 1   
    45    24    42 1   
@<TRIPOS>SUBSTRUCTURE
     1 KSL         1 TEMP              0 ****  ****    0 ROOT
