@<TRIPOS>MOLECULE
KSL
   42    45     1     0     0
SMALL
bcc


@<TRIPOS>ATOM
      1 C8          -3.6410     1.0810    -2.1190 c3         1 KSL      -0.048300
      2 C7          -3.9800     0.0940    -1.0410 ca         1 KSL      -0.062800
      3 C5          -5.0870    -0.7400    -1.1630 ca         1 KSL      -0.127500
      4 C4          -5.3930    -1.6590    -0.1700 ca         1 KSL      -0.120000
      5 C3          -4.5990    -1.7440     0.9630 ca         1 KSL      -0.127500
      6 C6          -3.1910    -0.0090     0.1080 ca         1 KSL       0.136600
      7 C2          -3.4910    -0.9170     1.1270 ca         1 KSL      -0.062800
      8 C1          -2.6610    -1.0000     2.3720 c3         1 KSL      -0.048300
      9 N9          -2.0900     0.8690     0.2480 nu         1 KSL      -0.756300
     10 C10         -0.7970     0.4860     0.1370 cc         1 KSL       0.749200
     11 C18          0.2100     1.5020     0.2210 cc         1 KSL      -0.270600
     12 C17          0.2400     2.8740     0.3420 cd         1 KSL      -0.002400
     13 N16          1.5180     3.3070     0.2900 nd         1 KSL      -0.559300
     14 C15          2.2730     2.2400     0.1430 cc         1 KSL       0.350700
     15 N14          1.5300     1.1130     0.1020 na         1 KSL      -0.008200
     16 C13          1.8720    -0.2270    -0.0610 cc         1 KSL      -0.165600
     17 C12          0.8340    -1.0940    -0.1240 cd         1 KSL       0.435200
     18 N11         -0.4850    -0.7660    -0.0430 nd         1 KSL      -0.760000
     19 C19          3.2840    -0.6220    -0.1360 ca         1 KSL      -0.034000
     20 C24          3.7170    -1.4490    -1.1730 ca         1 KSL      -0.113500
     21 C23          5.0370    -1.8730    -1.2340 ca         1 KSL      -0.127500
     22 C22          5.9460    -1.4660    -0.2670 ca         1 KSL      -0.118000
     23 C21          5.5240    -0.6390     0.7680 ca         1 KSL      -0.127500
     24 C20          4.2040    -0.2230     0.8370 ca         1 KSL      -0.113500
     25 H8          -3.7030     2.1120    -1.7630 hc         1 KSL       0.046033
     26 H8A         -2.6280     0.9340    -2.4970 hc         1 KSL       0.046033
     27 H8B         -4.3270     0.9870    -2.9590 hc         1 KSL       0.046033
     28 H5          -5.7100    -0.6720    -2.0460 ha         1 KSL       0.132500
     29 H4          -6.2550    -2.3050    -0.2760 ha         1 KSL       0.133000
     30 H3          -4.8490    -2.4520     1.7440 ha         1 KSL       0.132500
     31 H1          -1.7030    -1.4820     2.1710 hc         1 KSL       0.046033
     32 H1A         -2.4430    -0.0110     2.7770 hc         1 KSL       0.046033
     33 H1B         -3.1720    -1.5780     3.1410 hc         1 KSL       0.046033
     34 HN9         -2.2840     1.8580     0.2130 hn         1 KSL       0.449800
     35 H17         -0.5900     3.5530     0.4580 h4         1 KSL       0.175000
     36 H15          3.3470     2.2380     0.0560 h5         1 KSL       0.076800
     37 H12          1.0480    -2.1500    -0.2360 h4         1 KSL       0.031100
     38 H24          3.0180    -1.7540    -1.9420 ha         1 KSL       0.137500
     39 H23          5.3570    -2.5120    -2.0460 ha         1 KSL       0.135000
     40 H22          6.9770    -1.7900    -0.3170 ha         1 KSL       0.134000
     41 H21          6.2240    -0.3240     1.5310 ha         1 KSL       0.135000
     42 H20          3.8880     0.3970     1.6670 ha         1 KSL       0.137500
@<TRIPOS>BOND
     1     1     2 1   
     2     1    25 1   
     3     1    26 1   
     4     1    27 1   
     5     2     3 ar  
     6     2     6 ar  
     7     3     4 ar  
     8     3    28 1   
     9     4     5 ar  
    10     4    29 1   
    11     5     7 ar  
    12     5    30 1   
    13     6     7 ar  
    14     6     9 1   
    15     7     8 1   
    16     8    31 1   
    17     8    32 1   
    18     8    33 1   
    19     9    10 1   
    20     9    34 1   
    21    10    11 1   
    22    10    18 2   
    23    11    12 2   
    24    11    15 1   
    25    12    13 1   
    26    12    35 1   
    27    13    14 2   
    28    14    15 1   
    29    14    36 1   
    30    15    16 1   
    31    16    17 2   
    32    16    19 1   
    33    17    18 1   
    34    17    37 1   
    35    19    20 ar  
    36    19    24 ar  
    37    20    21 ar  
    38    20    38 1   
    39    21    22 ar  
    40    21    39 1   
    41    22    23 ar  
    42    22    40 1   
    43    23    24 ar  
    44    23    41 1   
    45    24    42 1   
@<TRIPOS>SUBSTRUCTURE
     1 KSL         1 TEMP              0 ****  ****    0 ROOT
