@<TRIPOS>MOLECULE
KSM
   52    56     1     0     0
SMALL
No Charge or Current Charge


@<TRIPOS>ATOM
      1 Cl24         4.9670    -0.0260    -2.3920 cl         1 KSM      -0.203000
      2 C12          5.0940     0.7330    -0.7990 ca         1 KSM       0.101000
      3 C13          6.0390     1.7550    -0.6180 ca         1 KSM      -0.100000
      4 C14          6.1710     2.3760     0.6330 ca         1 KSM      -0.101000
      5 C15          5.3650     1.9680     1.7070 ca         1 KSM      -0.107000
      6 C16          4.4130     0.9400     1.5440 ca         1 KSM      -0.039300
      7 C20          3.5940     0.5100     2.7620 c3         1 KSM      -0.048800
      8 C11          4.2580     0.3230     0.2720 ca         1 KSM       0.286000
      9 N10          3.3200    -0.7040     0.0600 nu         1 KSM      -0.947900
     10 C9           1.9640    -0.6900     0.0800 cc         1 KSM       0.670900
     11 C4           1.2980    -1.9210    -0.1890 cc         1 KSM      -0.233000
     12 C5           1.7410    -3.1990    -0.4400 cd         1 KSM      -0.042400
     13 N1           0.6320    -4.0270    -0.6230 nd         1 KSM      -0.564300
     14 N8           1.3680     0.4700     0.3100 nd         1 KSM      -0.744000
     15 C7          -0.0520     0.3730     0.2840 ca         1 KSM       0.252000
     16 C27         -0.7850     1.5490     0.5260 ca         1 KSM      -0.049000
     17 C28         -2.1920     1.5470     0.5200 ca         1 KSM      -0.166000
     18 C29         -2.9070     0.3610     0.2710 ca         1 KSM       0.315000
     19 C26         -2.1910    -0.8240     0.0240 ca         1 KSM      -0.167000
     20 C6          -0.7790    -0.8260     0.0290 ca         1 KSM      -0.052000
     21 N3          -0.0400    -1.9740    -0.2130 na         1 KSM       0.062200
     22 C2          -0.4540    -3.2570    -0.4780 cc         1 KSM       0.368700
     23 N30         -4.3200     0.3400     0.2600 nh         1 KSM      -0.792400
     24 C35         -5.0660    -0.5980     1.1620 c6         1 KSM       0.202800
     25 C34         -6.5150    -0.8960     0.6490 c6         1 KSM       0.152800
     26 N33         -7.2990     0.3390     0.3600 n7         1 KSM      -0.862400
     27 C32         -6.5650     1.2300    -0.5810 c6         1 KSM       0.163500
     28 C43         -7.4010     2.5120    -0.8150 c3         1 KSM      -0.092100
     29 C31         -5.1110     1.5660    -0.0870 c6         1 KSM       0.201800
     30 H13          6.6690     2.0650    -1.4480 ha         1 KSM       0.130000
     31 H14          6.9040     3.1690     0.7720 ha         1 KSM       0.119000
     32 H15          5.4860     2.4490     2.6750 ha         1 KSM       0.118000
     33 H20          2.6260     1.0230     2.7860 hc         1 KSM       0.050700
     34 H20A         3.4050    -0.5700     2.7660 hc         1 KSM       0.050700
     35 H20B         4.1140     0.7460     3.6970 hc         1 KSM       0.050700
     36 HN10         3.6330    -1.4040    -0.6050 hn         1 KSM       0.508000
     37 H5           2.7660    -3.5690    -0.4900 h4         1 KSM       0.228000
     38 H27         -0.2530     2.4760     0.7240 ha         1 KSM       0.133000
     39 H28         -2.7190     2.4740     0.7220 ha         1 KSM       0.120000
     40 H26         -2.7440    -1.7340    -0.1840 ha         1 KSM       0.121000
     41 H2          -1.4910    -3.5590    -0.5490 h5         1 KSM       0.070800
     42 H35         -4.5320    -1.5540     1.2610 h1         1 KSM       0.045700
     43 H35A        -5.1320    -0.1620     2.1690 h1         1 KSM       0.045700
     44 H34         -6.4440    -1.4980    -0.2690 h1         1 KSM       0.040200
     45 H34A        -7.0470    -1.5030     1.3960 h1         1 KSM       0.040200
     46 HN33        -8.1970     0.0740    -0.0640 hn         1 KSM       0.415000
     47 H32         -6.4780     0.7110    -1.5470 h1         1 KSM       0.032700
     48 H43         -7.5340     3.0770     0.1160 hc         1 KSM       0.041700
     49 H43A        -6.9100     3.1730    -1.5390 hc         1 KSM       0.041700
     50 H43B        -8.3950     2.2720    -1.2090 hc         1 KSM       0.041700
     51 H31         -5.1790     2.2210     0.7940 h1         1 KSM       0.046200
     52 H31A        -4.6010     2.1330    -0.8790 h1         1 KSM       0.046200
@<TRIPOS>BOND
     1     1     2 1   
     2     2     3 ar  
     3     2     8 ar  
     4     3     4 ar  
     5     3    30 1   
     6     4     5 ar  
     7     4    31 1   
     8     5     6 ar  
     9     5    32 1   
    10     6     7 1   
    11     6     8 ar  
    12     7    33 1   
    13     7    34 1   
    14     7    35 1   
    15     8     9 1   
    16     9    10 1   
    17     9    36 1   
    18    10    11 1   
    19    10    14 2   
    20    11    12 2   
    21    11    21 1   
    22    12    13 1   
    23    12    37 1   
    24    13    22 2   
    25    14    15 1   
    26    15    16 ar  
    27    15    20 ar  
    28    16    17 ar  
    29    16    38 1   
    30    17    18 ar  
    31    17    39 1   
    32    18    19 ar  
    33    18    23 1   
    34    19    20 ar  
    35    19    40 1   
    36    20    21 1   
    37    21    22 1   
    38    22    41 1   
    39    23    24 1   
    40    23    29 1   
    41    24    25 1   
    42    24    42 1   
    43    24    43 1   
    44    25    26 1   
    45    25    44 1   
    46    25    45 1   
    47    26    27 1   
    48    26    46 1   
    49    27    28 1   
    50    27    29 1   
    51    27    47 1   
    52    28    48 1   
    53    28    49 1   
    54    28    50 1   
    55    29    51 1   
    56    29    52 1   
@<TRIPOS>SUBSTRUCTURE
     1 KSM         1 TEMP              0 ****  ****    0 ROOT
