@<TRIPOS>MOLECULE
KSM
   52    56     1     0     0
SMALL
abcg2


@<TRIPOS>ATOM
      1 CL24         4.8300    -0.1350    -2.2690 cl         1 KSM      -0.203000
      2 C12          4.8890     0.7620    -0.7880 ca         1 KSM       0.101000
      3 C13          5.6840     1.8940    -0.7190 ca         1 KSM      -0.100000
      4 C14          5.7080     2.6180     0.4620 ca         1 KSM      -0.101000
      5 C15          4.9630     2.1980     1.5530 ca         1 KSM      -0.107000
      6 C16          4.1780     1.0500     1.4980 ca         1 KSM      -0.039300
      7 C20          3.4070     0.6010     2.7000 c3         1 KSM      -0.048800
      8 C11          4.1360     0.3250     0.3010 ca         1 KSM       0.286000
      9 N10          3.3720    -0.8500     0.2030 nu         1 KSM      -0.947900
     10 C9           2.0100    -0.8350     0.1410 cc         1 KSM       0.670900
     11 C4           1.3480    -2.1040    -0.0100 cc         1 KSM      -0.233000
     12 C5           1.7270    -3.4190    -0.1220 cd         1 KSM      -0.042400
     13 N1           0.6300    -4.2030    -0.2530 nd         1 KSM      -0.564300
     14 N8           1.3560     0.2730     0.2340 nd         1 KSM      -0.744000
     15 C7          -0.0190     0.2380     0.1960 ca         1 KSM       0.252000
     16 C27         -0.7430     1.4260     0.3160 ca         1 KSM      -0.049000
     17 C28         -2.1220     1.4470     0.2830 ca         1 KSM      -0.166000
     18 C29         -2.8670     0.2660     0.1040 ca         1 KSM       0.315000
     19 C26         -2.1540    -0.9310    -0.0210 ca         1 KSM      -0.167000
     20 C6          -0.7700    -0.9360     0.0340 ca         1 KSM      -0.052000
     21 N3          -0.0280    -2.1120    -0.0750 na         1 KSM       0.062200
     22 C2          -0.4070    -3.4010    -0.2210 cc         1 KSM       0.368700
     23 N30         -4.2540     0.2700     0.0220 nh         1 KSM      -0.792400
     24 C35         -4.9840    -0.7700     0.7380 c6         1 KSM       0.202800
     25 C34         -6.4080    -0.8670     0.2290 c6         1 KSM       0.152800
     26 N33         -7.0570     0.4210     0.3570 n7         1 KSM      -0.862400
     27 C32         -6.3730     1.4240    -0.4400 c6         1 KSM       0.163500
     28 C43         -7.0860     2.7600    -0.3290 c3         1 KSM      -0.092100
     29 C31         -4.9360     1.5490     0.0520 c6         1 KSM       0.201800
     30 H13          6.2640     2.2080    -1.5760 ha         1 KSM       0.130000
     31 H14          6.3190     3.5080     0.5310 ha         1 KSM       0.119000
     32 H15          5.0010     2.7640     2.4760 ha         1 KSM       0.118000
     33 H20          2.3520     0.8640     2.6040 hc         1 KSM       0.050700
     34 H20A         3.4580    -0.4800     2.8280 hc         1 KSM       0.050700
     35 H20B         3.7910     1.0720     3.6030 hc         1 KSM       0.050700
     36 HN10         3.8390    -1.6700    -0.1510 hn         1 KSM       0.508000
     37 H5           2.7250    -3.8300    -0.1100 h4         1 KSM       0.228000
     38 H27         -0.1950     2.3490     0.4580 ha         1 KSM       0.133000
     39 H28         -2.6180     2.3970     0.4160 ha         1 KSM       0.120000
     40 H26         -2.6810    -1.8600    -0.1870 ha         1 KSM       0.121000
     41 H2          -1.4380    -3.7070    -0.2980 h5         1 KSM       0.070800
     42 H35         -4.5040    -1.7360     0.6000 h1         1 KSM       0.045700
     43 H35A        -4.9930    -0.5580     1.8170 h1         1 KSM       0.045700
     44 H34         -6.3890    -1.2350    -0.8080 h1         1 KSM       0.040200
     45 H34A        -6.9430    -1.6060     0.8280 h1         1 KSM       0.040200
     46 HN33        -8.0210     0.3490     0.0560 hn         1 KSM       0.415000
     47 H32         -6.3290     1.1330    -1.5030 h1         1 KSM       0.032700
     48 H43         -7.1180     3.0990     0.7080 hc         1 KSM       0.041700
     49 H43A        -6.5830     3.5230    -0.9230 hc         1 KSM       0.041700
     50 H43B        -8.1120     2.6830    -0.6920 hc         1 KSM       0.041700
     51 H31         -4.9420     1.9830     1.0650 h1         1 KSM       0.046200
     52 H31A        -4.4190     2.2500    -0.6050 h1         1 KSM       0.046200
@<TRIPOS>BOND
     1     1     2 1   
     2     2     3 ar  
     3     2     8 ar  
     4     3     4 ar  
     5     3    30 1   
     6     4     5 ar  
     7     4    31 1   
     8     5     6 ar  
     9     5    32 1   
    10     6     7 1   
    11     6     8 ar  
    12     7    33 1   
    13     7    34 1   
    14     7    35 1   
    15     8     9 1   
    16     9    10 1   
    17     9    36 1   
    18    10    11 1   
    19    10    14 2   
    20    11    12 2   
    21    11    21 1   
    22    12    13 1   
    23    12    37 1   
    24    13    22 2   
    25    14    15 1   
    26    15    16 ar  
    27    15    20 ar  
    28    16    17 ar  
    29    16    38 1   
    30    17    18 ar  
    31    17    39 1   
    32    18    19 ar  
    33    18    23 1   
    34    19    20 ar  
    35    19    40 1   
    36    20    21 1   
    37    21    22 1   
    38    22    41 1   
    39    23    24 1   
    40    23    29 1   
    41    24    25 1   
    42    24    42 1   
    43    24    43 1   
    44    25    26 1   
    45    25    44 1   
    46    25    45 1   
    47    26    27 1   
    48    26    46 1   
    49    27    28 1   
    50    27    29 1   
    51    27    47 1   
    52    28    48 1   
    53    28    49 1   
    54    28    50 1   
    55    29    51 1   
    56    29    52 1   
@<TRIPOS>SUBSTRUCTURE
     1 KSM         1 TEMP              0 ****  ****    0 ROOT
