@<TRIPOS>MOLECULE
KSN
   32    31     1     0     0
SMALL
abcg2


@<TRIPOS>ATOM
      1 C10         20.2370   -60.6710   -20.6930 c          1 KSN       0.712000
      2 C13         16.6120   -60.3050   -23.4690 c          1 KSN       0.715000
      3 C17         15.7450   -64.1180   -19.6100 c          1 KSN       0.680000
      4 C02         14.9810   -65.0390   -20.5960 c3         1 KSN       0.012500
      5 C03         15.1900   -64.5550   -22.0330 c3         1 KSN      -0.041400
      6 C04         16.6590   -64.5640   -22.4760 c3         1 KSN      -0.147400
      7 C05         16.7980   -63.9900   -23.8690 c          1 KSN       0.587100
      8 C07         17.1090   -61.6700   -22.9240 c3         1 KSN      -0.044300
      9 C08         18.5760   -61.5780   -22.4650 c3         1 KSN      -0.040400
     10 C09         18.7890   -60.7330   -21.2170 c3         1 KSN      -0.192400
     11 N01         13.5340   -65.1050   -20.3270 n8         1 KSN      -1.012200
     12 N06         16.9610   -62.6630   -23.9840 ns         1 KSN      -0.453900
     13 O11         21.1370   -61.2730   -21.3330 o          1 KSN      -0.784500
     14 O12         20.4110   -60.0010   -19.6390 o          1 KSN      -0.784500
     15 O16         16.7150   -64.7210   -24.8690 o          1 KSN      -0.750100
     16 H021        15.3860   -66.0490   -20.4980 h1         1 KSN       0.024700
     17 H031        14.7830   -63.5430   -22.1160 hc         1 KSN       0.032200
     18 H032        14.6070   -65.1920   -22.7030 hc         1 KSN       0.032200
     19 H041        17.0270   -65.5890   -22.5060 hc         1 KSN       0.068200
     20 H042        17.2680   -64.0130   -21.7610 hc         1 KSN       0.068200
     21 H071        16.4780   -61.9430   -22.0800 h1         1 KSN       0.079700
     22 H082        18.9330   -62.5920   -22.2760 hc         1 KSN       0.022200
     23 H081        19.1740   -61.1920   -23.2940 hc         1 KSN       0.022200
     24 H091        18.4590   -59.7060   -21.3880 hc         1 KSN       0.046700
     25 H092        18.1630   -61.1090   -20.4020 hc         1 KSN       0.046700
     26 H012        13.3890   -65.5280   -19.4140 hn         1 KSN       0.372000
     27 H011        13.2020   -64.1480   -20.2320 hn         1 KSN       0.372000
     28 H061        17.0030   -62.2750   -24.9190 hn         1 KSN       0.315500
     29 O14         16.7970   -60.0910   -24.6940 o          1 KSN      -0.752500
     30 O18         16.8170   -64.5580   -19.1180 o          1 KSN      -0.727500
     31 O15         16.0950   -59.5210   -22.6390 o          1 KSN      -0.752500
     32 O19         15.2380   -62.9860   -19.3930 o          1 KSN      -0.727500
@<TRIPOS>BOND
     1     1    10 1   
     2     1    13 1   
     3     1    14 1   
     4     2     8 1   
     5     2    29 1   
     6     2    31 1   
     7     3     4 1   
     8     3    30 1   
     9     3    32 1   
    10     4     5 1   
    11     4    11 1   
    12     4    16 1   
    13     5     6 1   
    14     5    17 1   
    15     5    18 1   
    16     6     7 1   
    17     6    19 1   
    18     6    20 1   
    19     7    12 1   
    20     7    15 2   
    21     8     9 1   
    22     8    12 1   
    23     8    21 1   
    24     9    10 1   
    25     9    22 1   
    26     9    23 1   
    27    10    24 1   
    28    10    25 1   
    29    11    26 1   
    30    11    27 1   
    31    12    28 1   
@<TRIPOS>SUBSTRUCTURE
     1 KSN         1 TEMP              0 ****  ****    0 ROOT
