@<TRIPOS>MOLECULE
KSN
   32    31     1     0     0
SMALL
No Charge or Current Charge


@<TRIPOS>ATOM
      1 C10         20.3520   -60.5520   -20.8440 c          1 KSN       0.712000
      2 C13         16.8310   -60.2150   -23.7250 c          1 KSN       0.715000
      3 C17         15.5980   -64.3240   -19.3620 c          1 KSN       0.680000
      4 C02         14.8450   -65.1480   -20.4900 c3         1 KSN       0.012500
      5 C03         15.0790   -64.5380   -21.9010 c3         1 KSN      -0.041400
      6 C04         16.5690   -64.4560   -22.3170 c3         1 KSN      -0.147400
      7 C05         16.7100   -63.9770   -23.7750 c          1 KSN       0.587100
      8 C07         17.2510   -61.5650   -23.0610 c3         1 KSN      -0.044300
      9 C08         18.7000   -61.5200   -22.5040 c3         1 KSN      -0.040400
     10 C09         18.8970   -60.5160   -21.3410 c3         1 KSN      -0.192400
     11 N01         13.3710   -65.3680   -20.2680 n8         1 KSN      -1.012200
     12 N06         17.0850   -62.6750   -24.0330 ns         1 KSN      -0.453900
     13 O11         21.1640   -59.8110   -21.3760 o          1 KSN      -0.784500
     14 O12         20.6460   -61.3490   -19.9670 o          1 KSN      -0.784500
     15 O16         16.5320   -64.7360   -24.7180 o          1 KSN      -0.750100
     16 H021        15.3000   -66.1480   -20.4990 h1         1 KSN       0.024700
     17 H031        14.6430   -63.5320   -21.9420 hc         1 KSN       0.032200
     18 H032        14.5430   -65.1450   -22.6420 hc         1 KSN       0.032200
     19 H041        16.9990   -65.4610   -22.2430 hc         1 KSN       0.068200
     20 H042        17.0860   -63.7880   -21.6240 hc         1 KSN       0.068200
     21 H071        16.5560   -61.7240   -22.2270 h1         1 KSN       0.079700
     22 H082        18.9840   -62.5200   -22.1530 hc         1 KSN       0.022200
     23 H081        19.3910   -61.2720   -23.3190 hc         1 KSN       0.022200
     24 H091        18.6650   -59.5250   -21.7460 hc         1 KSN       0.046700
     25 H092        18.2170   -60.8410   -20.5440 hc         1 KSN       0.046700
     26 H012        13.2370   -65.8370   -19.3630 hn         1 KSN       0.372000
     27 H011        12.9270   -64.4520   -20.1240 hn         1 KSN       0.372000
     28 H061        17.1760   -62.4430   -25.0160 hn         1 KSN       0.315500
     29 O14         17.3020   -59.9290   -24.8180 o          1 KSN      -0.752500
     30 O18         16.4900   -64.8810   -18.7380 o          1 KSN      -0.727500
     31 O15         15.9500   -59.5570   -23.1890 o          1 KSN      -0.752500
     32 O19         15.1740   -63.2120   -19.0720 o          1 KSN      -0.727500
@<TRIPOS>BOND
     1     1    10 1   
     2     1    13 1   
     3     1    14 1   
     4     2     8 1   
     5     2    29 1   
     6     2    31 1   
     7     3     4 1   
     8     3    30 1   
     9     3    32 1   
    10     4     5 1   
    11     4    11 1   
    12     4    16 1   
    13     5     6 1   
    14     5    17 1   
    15     5    18 1   
    16     6     7 1   
    17     6    19 1   
    18     6    20 1   
    19     7    12 1   
    20     7    15 2   
    21     8     9 1   
    22     8    12 1   
    23     8    21 1   
    24     9    10 1   
    25     9    22 1   
    26     9    23 1   
    27    10    24 1   
    28    10    25 1   
    29    11    26 1   
    30    11    27 1   
    31    12    28 1   
@<TRIPOS>SUBSTRUCTURE
     1 KSN         1 TEMP              0 ****  ****    0 ROOT
