@<TRIPOS>MOLECULE
KSP
   33    34     1     0     0
SMALL
abcg2


@<TRIPOS>ATOM
      1 C01          4.3470    -0.6940    -0.4560 ca         1 KSP      -0.188000
      2 C02          4.6090    -0.8490     0.8900 ca         1 KSP      -0.049000
      3 C03          3.6030    -0.6710     1.8390 ca         1 KSP      -0.186000
      4 C04          2.3330    -0.3390     1.4180 ca         1 KSP      -0.018000
      5 C05          2.0290    -0.1750     0.0590 ca         1 KSP      -0.284600
      6 C06          3.0620    -0.3560    -0.8880 ca         1 KSP       0.216100
      7 C11         -0.4050     0.4510     0.6140 c5         1 KSP      -0.165700
      8 C12         -1.8310     0.4630     0.0420 c5         1 KSP      -0.026700
      9 C13         -0.2020     1.8430     1.2910 c5         1 KSP      -0.067400
     10 C14         -1.5620     2.5480     1.1750 c5         1 KSP      -0.083400
     11 C15         -2.5620     1.4140     0.9860 c5         1 KSP      -0.068400
     12 C07          0.6760     0.1850    -0.3980 c          1 KSP       0.609700
     13 C08         -2.4370    -0.9240    -0.0770 c3         1 KSP      -0.202400
     14 C09         -3.8320    -0.9910    -0.7240 c          1 KSP       0.718000
     15 O10          2.8650    -0.2150    -2.1960 oh         1 KSP      -0.558100
     16 O16         -4.5120    -2.0050    -0.4620 o          1 KSP      -0.739000
     17 O17          0.4520     0.3020    -1.6010 o          1 KSP      -0.555100
     18 O18         -4.1640    -0.0590    -1.4840 o          1 KSP      -0.739000
     19 H1           5.1300    -0.8330    -1.1910 ha         1 KSP       0.122000
     20 H2           5.6090    -1.1130     1.2080 ha         1 KSP       0.103000
     21 H3           3.8130    -0.7950     2.8920 ha         1 KSP       0.110000
     22 H4           1.5580    -0.2090     2.1600 ha         1 KSP       0.119000
     23 H5          -0.3510    -0.3210     1.3870 hc         1 KSP       0.061700
     24 H6          -1.8120     0.9290    -0.9460 hc         1 KSP       0.082700
     25 H9          -1.7730     3.1800     2.0390 hc         1 KSP       0.032200
     26 H10         -1.5730     3.1930     0.2930 hc         1 KSP       0.032200
     27 H11         -3.5190     1.7420     0.5800 hc         1 KSP       0.053200
     28 H12         -2.7630     0.9180     1.9420 hc         1 KSP       0.053200
     29 H13         -1.7750    -1.5600    -0.6790 hc         1 KSP       0.019700
     30 H14         -2.4730    -1.3960     0.9110 hc         1 KSP       0.019700
     31 H15          1.9150     0.0140    -2.3240 ho         1 KSP       0.523000
     32 H7           0.0830     1.7060     2.3350 hc         1 KSP       0.028200
     33 H8           0.5960     2.4250     0.8260 hc         1 KSP       0.028200
@<TRIPOS>BOND
     1     1     2 ar  
     2     1     6 ar  
     3     1    19 1   
     4     2     3 ar  
     5     2    20 1   
     6     3     4 ar  
     7     3    21 1   
     8     4     5 ar  
     9     4    22 1   
    10     5     6 ar  
    11     5    12 1   
    12     6    15 1   
    13     7     8 1   
    14     7     9 1   
    15     7    12 1   
    16     7    23 1   
    17     8    11 1   
    18     8    13 1   
    19     8    24 1   
    20     9    10 1   
    21     9    32 1   
    22     9    33 1   
    23    10    11 1   
    24    10    25 1   
    25    10    26 1   
    26    11    27 1   
    27    11    28 1   
    28    12    17 2   
    29    13    14 1   
    30    13    29 1   
    31    13    30 1   
    32    14    16 1   
    33    14    18 1   
    34    15    31 1   
@<TRIPOS>SUBSTRUCTURE
     1 KSP         1 TEMP              0 ****  ****    0 ROOT
