@<TRIPOS>MOLECULE
KSP
   33    34     1     0     0
SMALL
No Charge or Current Charge


@<TRIPOS>ATOM
      1 C01          3.9950    -1.2870    -0.5610 ca         1 KSP      -0.188000
      2 C02          4.3990    -1.3660     0.7800 ca         1 KSP      -0.049000
      3 C03          3.6490    -0.7120     1.7680 ca         1 KSP      -0.186000
      4 C04          2.4910     0.0040     1.4220 ca         1 KSP      -0.018000
      5 C05          2.0590     0.0650     0.0740 ca         1 KSP      -0.284600
      6 C06          2.8430    -0.5690    -0.9130 ca         1 KSP       0.216100
      7 C11         -0.3180     0.7730     0.7390 c5         1 KSP      -0.165700
      8 C12         -1.7060     0.5140     0.0730 c5         1 KSP      -0.026700
      9 C13         -0.4730     2.1770     1.4210 c5         1 KSP      -0.067400
     10 C14         -2.0030     2.4720     1.3910 c5         1 KSP      -0.083400
     11 C15         -2.6340     1.0740     1.1810 c5         1 KSP      -0.068400
     12 C07          0.8140     0.8210    -0.3320 c          1 KSP       0.609700
     13 C08         -1.9500    -0.9690    -0.3180 c3         1 KSP      -0.202400
     14 C09         -3.3230    -1.1460    -0.9920 c          1 KSP       0.718000
     15 O10          2.5020    -0.4900    -2.2280 oh         1 KSP      -0.558100
     16 O16         -4.2830    -1.4300    -0.2910 o          1 KSP      -0.739000
     17 O17          0.7470     1.3940    -1.4150 o          1 KSP      -0.555100
     18 O18         -3.3990    -0.9620    -2.1970 o          1 KSP      -0.739000
     19 H1           4.5830    -1.7780    -1.3320 ha         1 KSP       0.122000
     20 H2           5.2960    -1.9200     1.0500 ha         1 KSP       0.103000
     21 H3           3.9680    -0.7560     2.8060 ha         1 KSP       0.110000
     22 H4           1.9480     0.5190     2.2120 ha         1 KSP       0.119000
     23 H5          -0.1040     0.0150     1.5000 hc         1 KSP       0.061700
     24 H6          -1.8220     1.1060    -0.8460 hc         1 KSP       0.082700
     25 H9          -2.3520     2.9520     2.3130 hc         1 KSP       0.032200
     26 H10         -2.2560     3.1460     0.5630 hc         1 KSP       0.032200
     27 H11         -3.6810     1.1410     0.8650 hc         1 KSP       0.053200
     28 H12         -2.6020     0.4680     2.0950 hc         1 KSP       0.053200
     29 H13         -1.1560    -1.2250    -1.0310 hc         1 KSP       0.019700
     30 H14         -1.9030    -1.5560     0.6080 hc         1 KSP       0.019700
     31 H15          1.8140     0.2160    -2.2980 ho         1 KSP       0.523000
     32 H7          -0.0930     2.1520     2.4490 hc         1 KSP       0.028200
     33 H8           0.0850     2.9650     0.9010 hc         1 KSP       0.028200
@<TRIPOS>BOND
     1     1     2 ar  
     2     1     6 ar  
     3     1    19 1   
     4     2     3 ar  
     5     2    20 1   
     6     3     4 ar  
     7     3    21 1   
     8     4     5 ar  
     9     4    22 1   
    10     5     6 ar  
    11     5    12 1   
    12     6    15 1   
    13     7     8 1   
    14     7     9 1   
    15     7    12 1   
    16     7    23 1   
    17     8    11 1   
    18     8    13 1   
    19     8    24 1   
    20     9    10 1   
    21     9    32 1   
    22     9    33 1   
    23    10    11 1   
    24    10    25 1   
    25    10    26 1   
    26    11    27 1   
    27    11    28 1   
    28    12    17 2   
    29    13    14 1   
    30    13    29 1   
    31    13    30 1   
    32    14    16 1   
    33    14    18 1   
    34    15    31 1   
@<TRIPOS>SUBSTRUCTURE
     1 KSP         1 TEMP              0 ****  ****    0 ROOT
