@<TRIPOS>MOLECULE
KSR
   35    38     1     0     0
SMALL
abcg2


@<TRIPOS>ATOM
      1 C1          -5.4780     0.4200    -0.2730 ca         1 KSR       0.259900
      2 N2          -4.7170    -0.6120    -0.6200 nb         1 KSR      -0.599000
      3 C3          -3.4230    -0.4760    -0.3450 ca         1 KSR       0.315800
      4 C4          -2.9360     0.7110     0.2670 ca         1 KSR       0.322500
      5 N5          -3.6830     1.7320     0.6150 nb         1 KSR      -0.646000
      6 C6          -4.9760     1.5710     0.3370 ca         1 KSR       0.293900
      7 C9          -2.3080    -1.3270    -0.5510 cc         1 KSR      -0.361800
      8 C10         -1.2060    -0.6580    -0.0650 cd         1 KSR       0.062900
      9 N11         -1.5920     0.5730     0.4130 na         1 KSR      -0.319400
     10 C14          0.1660    -1.0960    -0.0090 cd         1 KSR      -0.133200
     11 C15          1.3730    -0.3140    -0.0030 ca         1 KSR      -0.037800
     12 C16          2.4380    -1.2370     0.0500 ca         1 KSR      -0.087200
     13 N17          1.9100    -2.5050     0.0730 na         1 KSR      -0.076700
     14 C18          0.5620    -2.4130     0.0380 cc         1 KSR      -0.103100
     15 C20          1.6590     1.0510    -0.0690 ca         1 KSR      -0.119000
     16 C21          2.9840     1.4650    -0.0580 ca         1 KSR       0.123100
     17 C22          4.0320     0.5280     0.0090 ca         1 KSR      -0.172000
     18 C23          3.7630    -0.8280     0.0600 ca         1 KSR      -0.080000
     19 C27          2.6820    -3.7210     0.1610 c3         1 KSR       0.062900
     20 O31          3.1850     2.8010    -0.1190 os         1 KSR      -0.344100
     21 C32          4.5090     3.2900    -0.1290 c3         1 KSR       0.150900
     22 H1          -6.5390     0.3450    -0.4800 h4         1 KSR       0.025100
     23 H6          -5.6450     2.3790     0.6030 h4         1 KSR       0.026100
     24 H9          -2.3010    -2.2960    -1.0250 ha         1 KSR       0.215000
     25 HN11        -1.0010     1.2160     0.9160 hn         1 KSR       0.366000
     26 H18         -0.0510    -3.3010     0.0670 h4         1 KSR       0.220000
     27 H20          0.8790     1.7990    -0.1400 ha         1 KSR       0.129000
     28 H22          5.0640     0.8500     0.0170 ha         1 KSR       0.118000
     29 H23          4.5760    -1.5410     0.1030 ha         1 KSR       0.115000
     30 H27          3.2670    -3.7410     1.0800 h1         1 KSR       0.052367
     31 H27A         2.0080    -4.5730     0.1590 h1         1 KSR       0.052367
     32 H27B         3.3590    -3.8100    -0.6880 h1         1 KSR       0.052367
     33 H32          4.4390     4.3750    -0.1760 h1         1 KSR       0.039033
     34 H32A         5.0560     3.0140     0.7760 h1         1 KSR       0.039033
     35 H32B         5.0700     2.9390    -1.0000 h1         1 KSR       0.039033
@<TRIPOS>BOND
     1     1     2 ar  
     2     1     6 ar  
     3     1    22 1   
     4     2     3 ar  
     5     3     4 ar  
     6     3     7 1   
     7     4     5 ar  
     8     4     9 1   
     9     5     6 ar  
    10     6    23 1   
    11     7     8 2   
    12     7    24 1   
    13     8     9 1   
    14     8    10 1   
    15     9    25 1   
    16    10    11 1   
    17    10    14 2   
    18    11    12 ar  
    19    11    15 ar  
    20    12    13 1   
    21    12    18 ar  
    22    13    14 1   
    23    13    19 1   
    24    14    26 1   
    25    15    16 ar  
    26    15    27 1   
    27    16    17 ar  
    28    16    20 1   
    29    17    18 ar  
    30    17    28 1   
    31    18    29 1   
    32    19    30 1   
    33    19    31 1   
    34    19    32 1   
    35    20    21 1   
    36    21    33 1   
    37    21    34 1   
    38    21    35 1   
@<TRIPOS>SUBSTRUCTURE
     1 KSR         1 TEMP              0 ****  ****    0 ROOT
