@<TRIPOS>MOLECULE
KSR
   35    38     1     0     0
SMALL
No Charge or Current Charge


@<TRIPOS>ATOM
      1 C1          -5.5820     0.2000    -0.0290 ca         1 KSR       0.259900
      2 N2          -4.7290    -0.8650    -0.0460 nb         1 KSR      -0.599000
      3 C3          -3.4280    -0.5000    -0.0310 ca         1 KSR       0.315800
      4 C4          -2.9550     0.8140    -0.0020 ca         1 KSR       0.322500
      5 N5          -3.7920     1.8790     0.0150 nb         1 KSR      -0.646000
      6 C6          -5.1210     1.5520     0.0000 ca         1 KSR       0.293900
      7 C9          -2.3080    -1.3800    -0.0420 cc         1 KSR      -0.361800
      8 C10         -1.1880    -0.5630    -0.0190 cd         1 KSR       0.062900
      9 N11         -1.5710     0.7930     0.0060 na         1 KSR      -0.319400
     10 C14          0.1730    -1.0400    -0.0210 cd         1 KSR      -0.133200
     11 C15          1.4180    -0.2920     0.0010 ca         1 KSR      -0.037800
     12 C16          2.4100    -1.2380    -0.0120 ca         1 KSR      -0.087200
     13 N17          1.8330    -2.5010    -0.0410 na         1 KSR      -0.076700
     14 C18          0.4290    -2.4080    -0.0470 cc         1 KSR      -0.103100
     15 C20          1.7090     1.0800     0.0300 ca         1 KSR      -0.119000
     16 C21          3.0620     1.4760     0.0460 ca         1 KSR       0.123100
     17 C22          4.0910     0.4940     0.0330 ca         1 KSR      -0.172000
     18 C23          3.7660    -0.8790     0.0030 ca         1 KSR      -0.080000
     19 C27          2.6410    -3.7300    -0.0600 c3         1 KSR       0.062900
     20 O31          3.3330     2.8300     0.0750 os         1 KSR      -0.344100
     21 C32          4.6770     3.3440     0.0930 c3         1 KSR       0.150900
     22 H1          -6.6470    -0.0250    -0.0400 h4         1 KSR       0.025100
     23 H6          -5.8280     2.3800     0.0130 h4         1 KSR       0.026100
     24 H9          -2.3380    -2.4630    -0.0640 ha         1 KSR       0.215000
     25 HN11        -0.9680     1.6010     0.0250 hn         1 KSR       0.366000
     26 H18         -0.2210    -3.2750    -0.0680 h4         1 KSR       0.220000
     27 H20          0.9280     1.8320     0.0410 ha         1 KSR       0.129000
     28 H22          5.1390     0.7770     0.0440 ha         1 KSR       0.118000
     29 H23          4.5510    -1.6330    -0.0070 ha         1 KSR       0.115000
     30 H27          3.2690    -3.7720     0.8380 h1         1 KSR       0.052367
     31 H27A         1.9840    -4.6070    -0.0820 h1         1 KSR       0.052367
     32 H27B         3.2800    -3.7360    -0.9530 h1         1 KSR       0.052367
     33 H32          4.6640     4.4410     0.1150 h1         1 KSR       0.039033
     34 H32A         5.2170     2.9930     0.9820 h1         1 KSR       0.039033
     35 H32B         5.2270     3.0280    -0.8020 h1         1 KSR       0.039033
@<TRIPOS>BOND
     1     1     2 ar  
     2     1     6 ar  
     3     1    22 1   
     4     2     3 ar  
     5     3     4 ar  
     6     3     7 1   
     7     4     5 ar  
     8     4     9 1   
     9     5     6 ar  
    10     6    23 1   
    11     7     8 2   
    12     7    24 1   
    13     8     9 1   
    14     8    10 1   
    15     9    25 1   
    16    10    11 1   
    17    10    14 2   
    18    11    12 ar  
    19    11    15 ar  
    20    12    13 1   
    21    12    18 ar  
    22    13    14 1   
    23    13    19 1   
    24    14    26 1   
    25    15    16 ar  
    26    15    27 1   
    27    16    17 ar  
    28    16    20 1   
    29    17    18 ar  
    30    17    28 1   
    31    18    29 1   
    32    19    30 1   
    33    19    31 1   
    34    19    32 1   
    35    20    21 1   
    36    21    33 1   
    37    21    34 1   
    38    21    35 1   
@<TRIPOS>SUBSTRUCTURE
     1 KSR         1 TEMP              0 ****  ****    0 ROOT
