@<TRIPOS>MOLECULE
KSS
   39    41     1     0     0
SMALL
abcg2


@<TRIPOS>ATOM
      1 C1           2.4380     2.1740    -0.0060 cc         1 KSS      -0.058000
      2 N2           3.0830     0.9460     0.0070 na         1 KSS      -0.083400
      3 C3           4.4350     1.1970     0.0070 cc         1 KSS      -0.261100
      4 C4           4.5310     2.5590    -0.0070 cd         1 KSS      -0.029400
      5 N5           3.3090     3.1570    -0.0150 nd         1 KSS      -0.286600
      6 C6           1.0310     2.1760    -0.0080 cc         1 KSS      -0.119000
      7 C7           0.3800     0.9730     0.0040 cd         1 KSS       0.419500
      8 N8           1.0750    -0.2030     0.0140 nd         1 KSS      -0.728000
      9 C9           2.3590    -0.2120     0.0150 cc         1 KSS       0.649800
     10 S12          3.2870    -1.6870     0.0270 ss         1 KSS      -0.348300
     11 C13          1.9670    -2.9370     0.0160 c3         1 KSS       0.063600
     12 C14          2.6150    -4.3100     0.0380 c3         1 KSS      -0.089100
     13 C21         -1.0880     0.8390     0.0050 ca         1 KSS      -0.144500
     14 C22         -1.9330     1.9390     0.0350 ca         1 KSS      -0.085000
     15 C23         -3.3130     1.7760     0.0300 ca         1 KSS      -0.181000
     16 C24         -3.8800     0.5110    -0.0040 ca         1 KSS       0.127100
     17 C25         -3.0310    -0.6160    -0.0300 ca         1 KSS       0.100100
     18 C26         -1.6610    -0.4410    -0.0250 ca         1 KSS      -0.135000
     19 O30         -5.1960     0.2520    -0.0150 os         1 KSS      -0.318100
     20 O31         -3.6520    -1.8100    -0.0580 os         1 KSS      -0.322100
     21 C32         -6.0950     1.3440     0.0030 c3         1 KSS       0.144900
     22 C36         -2.8540    -2.9750    -0.0810 c3         1 KSS       0.145900
     23 H3           5.1830     0.4230     0.0160 h4         1 KSS       0.242000
     24 H4           5.4420     3.1380    -0.0110 h4         1 KSS       0.228000
     25 H6           0.5180     3.1260    -0.0210 ha         1 KSS       0.150000
     26 H13          1.3330    -2.7810     0.8870 h1         1 KSS       0.078200
     27 H13A         1.3640    -2.7950    -0.8790 h1         1 KSS       0.078200
     28 H14          3.2140    -4.4600     0.9360 hc         1 KSS       0.049367
     29 H14A         1.8350    -5.0710     0.0260 hc         1 KSS       0.049367
     30 H14B         3.2510    -4.4720    -0.8320 hc         1 KSS       0.049367
     31 H22         -1.5440     2.9470     0.0650 ha         1 KSS       0.116000
     32 H23         -3.9390     2.6570     0.0550 ha         1 KSS       0.121000
     33 H26         -1.0000    -1.2950    -0.0450 ha         1 KSS       0.136000
     34 H32         -5.9900     1.9440     0.9100 h1         1 KSS       0.041367
     35 H32A        -5.9640     1.9940    -0.8670 h1         1 KSS       0.041367
     36 H32B        -7.0950     0.9190    -0.0240 h1         1 KSS       0.041367
     37 H36         -3.5400    -3.8190    -0.0950 h1         1 KSS       0.039367
     38 H36A        -2.2230    -3.0220    -0.9720 h1         1 KSS       0.039367
     39 H36B        -2.2200    -3.0540     0.8070 h1         1 KSS       0.039367
@<TRIPOS>BOND
     1     1     2 1   
     2     1     5 2   
     3     1     6 1   
     4     2     3 1   
     5     2     9 1   
     6     3     4 2   
     7     3    23 1   
     8     4     5 1   
     9     4    24 1   
    10     6     7 2   
    11     6    25 1   
    12     7     8 1   
    13     7    13 1   
    14     8     9 2   
    15     9    10 1   
    16    10    11 1   
    17    11    12 1   
    18    11    26 1   
    19    11    27 1   
    20    12    28 1   
    21    12    29 1   
    22    12    30 1   
    23    13    14 ar  
    24    13    18 ar  
    25    14    15 ar  
    26    14    31 1   
    27    15    16 ar  
    28    15    32 1   
    29    16    17 ar  
    30    16    19 1   
    31    17    18 ar  
    32    17    20 1   
    33    18    33 1   
    34    19    21 1   
    35    20    22 1   
    36    21    34 1   
    37    21    35 1   
    38    21    36 1   
    39    22    37 1   
    40    22    38 1   
    41    22    39 1   
@<TRIPOS>SUBSTRUCTURE
     1 KSS         1 TEMP              0 ****  ****    0 ROOT
