@<TRIPOS>MOLECULE
KSS
   39    41     1     0     0
SMALL
No Charge or Current Charge


@<TRIPOS>ATOM
      1 C1           2.4690     2.2010     0.0180 cc         1 KSS      -0.058000
      2 N2           3.1410     1.0450     0.0160 na         1 KSS      -0.083400
      3 C3           4.5000     1.2370     0.0220 cc         1 KSS      -0.261100
      4 C4           4.5890     2.6180     0.0270 cd         1 KSS      -0.029400
      5 N5           3.3230     3.2060     0.0250 nd         1 KSS      -0.286600
      6 C6           1.0560     2.1540     0.0120 cc         1 KSS      -0.119000
      7 C7           0.3800     0.9350     0.0050 cd         1 KSS       0.419500
      8 N8           1.1290    -0.2620     0.0030 nd         1 KSS      -0.728000
      9 C9           2.4680    -0.1790     0.0080 cc         1 KSS       0.649800
     10 S12          3.4200    -1.6690     0.0060 ss         1 KSS      -0.348300
     11 C13          2.1240    -2.9900    -0.0040 c3         1 KSS       0.063600
     12 C14          2.7800    -4.3810    -0.0070 c3         1 KSS      -0.089100
     13 C21         -1.1110     0.8080    -0.0010 ca         1 KSS      -0.144500
     14 C22         -1.9570     1.9440     0.0010 ca         1 KSS      -0.085000
     15 C23         -3.3550     1.8110    -0.0050 ca         1 KSS      -0.181000
     16 C24         -3.9540     0.5340    -0.0130 ca         1 KSS       0.127100
     17 C25         -3.1330    -0.6150    -0.0140 ca         1 KSS       0.100100
     18 C26         -1.7260    -0.4710    -0.0090 ca         1 KSS      -0.135000
     19 O30         -5.3300     0.3710    -0.0180 os         1 KSS      -0.318100
     20 O31         -3.7420    -1.8610    -0.0220 os         1 KSS      -0.322100
     21 C32         -6.2400     1.4850    -0.0170 c3         1 KSS       0.144900
     22 C36         -2.9960    -3.0910    -0.0240 c3         1 KSS       0.145900
     23 H3           5.2510     0.4520     0.0210 h4         1 KSS       0.242000
     24 H4           5.4930     3.2240     0.0330 h4         1 KSS       0.228000
     25 H6           0.5320     3.0990     0.0140 ha         1 KSS       0.150000
     26 H13          1.4890    -2.8830     0.8850 h1         1 KSS       0.078200
     27 H13A         1.4950    -2.8760    -0.8970 h1         1 KSS       0.078200
     28 H14          3.4040    -4.5160     0.8840 hc         1 KSS       0.049367
     29 H14A         2.0130    -5.1650    -0.0130 hc         1 KSS       0.049367
     30 H14B         3.4100    -4.5090    -0.8960 hc         1 KSS       0.049367
     31 H22         -1.5550     2.9520     0.0060 ha         1 KSS       0.116000
     32 H23         -3.9570     2.7150    -0.0040 ha         1 KSS       0.121000
     33 H26         -1.1030    -1.3590    -0.0100 ha         1 KSS       0.136000
     34 H32         -6.0990     2.1040     0.8780 h1         1 KSS       0.041367
     35 H32A        -6.0920     2.1110    -0.9060 h1         1 KSS       0.041367
     36 H32B        -7.2780     1.1270    -0.0220 h1         1 KSS       0.041367
     37 H36         -3.6800    -3.9490    -0.0300 h1         1 KSS       0.039367
     38 H36A        -2.3580    -3.1590    -0.9150 h1         1 KSS       0.039367
     39 H36B        -2.3650    -3.1660     0.8700 h1         1 KSS       0.039367
@<TRIPOS>BOND
     1     1     2 1   
     2     1     5 2   
     3     1     6 1   
     4     2     3 1   
     5     2     9 1   
     6     3     4 2   
     7     3    23 1   
     8     4     5 1   
     9     4    24 1   
    10     6     7 2   
    11     6    25 1   
    12     7     8 1   
    13     7    13 1   
    14     8     9 2   
    15     9    10 1   
    16    10    11 1   
    17    11    12 1   
    18    11    26 1   
    19    11    27 1   
    20    12    28 1   
    21    12    29 1   
    22    12    30 1   
    23    13    14 ar  
    24    13    18 ar  
    25    14    15 ar  
    26    14    31 1   
    27    15    16 ar  
    28    15    32 1   
    29    16    17 ar  
    30    16    19 1   
    31    17    18 ar  
    32    17    20 1   
    33    18    33 1   
    34    19    21 1   
    35    20    22 1   
    36    21    34 1   
    37    21    35 1   
    38    21    36 1   
    39    22    37 1   
    40    22    38 1   
    41    22    39 1   
@<TRIPOS>SUBSTRUCTURE
     1 KSS         1 TEMP              0 ****  ****    0 ROOT
