@<TRIPOS>MOLECULE
KST
   32    32     1     0     0
SMALL
No Charge or Current Charge


@<TRIPOS>ATOM
      1 O2          24.3960    12.0700   -10.2010 o          1 KST      -0.719000
      2 C9          23.7620    11.0260   -10.2610 c          1 KST       0.735600
      3 O1          23.9300    10.1090    -9.4690 o          1 KST      -0.719000
      4 C8          22.7510    10.8670   -11.3360 cc         1 KST      -0.201600
      5 S           22.4120    12.1080   -12.5390 ss         1 KST       0.163000
      6 C6          21.1910    11.0870   -13.2970 cc         1 KST      -0.372000
      7 C7          21.9590     9.7580   -11.5370 cd         1 KST      -0.185000
      8 C5          21.0850     9.8930   -12.6440 cd         1 KST       0.248000
      9 N1          20.2240     8.8960   -12.9980 nu         1 KST      -0.913200
     10 C4          19.2790     8.9200   -14.1230 c3         1 KST       0.192800
     11 C3          18.4750     7.6050   -14.1950 c3         1 KST      -0.087400
     12 C2          17.4670     7.5900   -15.3700 c3         1 KST      -0.072400
     13 C1          16.7430     6.2400   -15.6270 c3         1 KST      -0.091400
     14 CA          15.7360     5.7790   -14.5330 c3         1 KST       0.017500
     15 N           16.4660     5.1670   -13.3650 n8         1 KST      -0.990200
     16 C           14.5790     4.8970   -15.1710 c          1 KST       0.724000
     17 OXT         13.4340     5.3320   -15.1460 o          1 KST      -0.740500
     18 O           14.8580     3.7840   -15.6020 o          1 KST      -0.740500
     19 H6          20.6510    11.4460   -14.1600 h4         1 KST       0.123000
     20 H7          21.9990     8.8710   -10.9140 ha         1 KST       0.133000
     21 HN1         20.2550     8.0570   -12.4210 hn         1 KST       0.440000
     22 H41         18.5840     9.7640   -14.0070 h1         1 KST       0.025200
     23 H42         19.8280     9.0620   -15.0650 h1         1 KST       0.025200
     24 H31         19.1690     6.7630   -14.3030 hc         1 KST       0.043700
     25 H32         17.9370     7.4760   -13.2490 hc         1 KST       0.043700
     26 H21         16.7180     8.3750   -15.2110 hc         1 KST       0.023200
     27 H22         18.0050     7.8600   -16.2870 hc         1 KST       0.023200
     28 H11         16.1880     6.3540   -16.5660 hc         1 KST       0.033700
     29 H12         17.4830     5.4510   -15.8140 hc         1 KST       0.033700
     30 HA          15.2400     6.6850   -14.1580 h1         1 KST       0.048700
     31 HN1A        16.8570     4.2640   -13.6610 hn         1 KST       0.376500
     32 HN2         17.2920     5.7380   -13.1570 hn         1 KST       0.376500
@<TRIPOS>BOND
     1     1     2 1   
     2     2     3 1   
     3     2     4 1   
     4     4     5 1   
     5     4     7 2   
     6     5     6 1   
     7     6     8 2   
     8     6    19 1   
     9     7     8 1   
    10     7    20 1   
    11     8     9 1   
    12     9    10 1   
    13     9    21 1   
    14    10    11 1   
    15    10    22 1   
    16    10    23 1   
    17    11    12 1   
    18    11    24 1   
    19    11    25 1   
    20    12    13 1   
    21    12    26 1   
    22    12    27 1   
    23    13    14 1   
    24    13    28 1   
    25    13    29 1   
    26    14    15 1   
    27    14    16 1   
    28    14    30 1   
    29    15    31 1   
    30    15    32 1   
    31    16    17 1   
    32    16    18 1   
@<TRIPOS>SUBSTRUCTURE
     1 KST         1 TEMP              0 ****  ****    0 ROOT
