@<TRIPOS>MOLECULE
KST
   32    32     1     0     0
SMALL
bcc


@<TRIPOS>ATOM
      1 O2          24.2120    12.4930   -10.5880 o          1 KST      -0.824300
      2 C9          23.7990    11.3240   -10.4550 c          1 KST       0.946200
      3 O1          24.1860    10.4550    -9.6540 o          1 KST      -0.824300
      4 C8          22.6860    10.9300   -11.3930 cc         1 KST      -0.056700
      5 S           22.1030    12.0920   -12.5170 ss         1 KST      -0.126800
      6 C6          20.9530    10.9840   -13.1600 cc         1 KST      -0.245100
      7 C7          22.0130     9.7530   -11.5060 cd         1 KST      -0.203000
      8 C5          21.0040     9.7700   -12.5220 cd         1 KST       0.109600
      9 N1          20.1740     8.6890   -12.7650 nu         1 KST      -0.719600
     10 C4          19.3470     8.7230   -13.9500 c3         1 KST       0.192800
     11 C3          18.4900     7.4740   -14.0810 c3         1 KST      -0.087400
     12 C2          17.5850     7.5620   -15.3050 c3         1 KST      -0.072400
     13 C1          16.7650     6.3180   -15.6360 c3         1 KST      -0.091400
     14 CA          15.7710     5.8710   -14.5420 c3         1 KST       0.017500
     15 N           16.3330     4.9920   -13.5240 n8         1 KST      -0.879800
     16 C           14.5660     5.1870   -15.2300 c          1 KST       0.934600
     17 OXT         13.6850     5.9470   -15.6810 o          1 KST      -0.845800
     18 O           14.6000     3.9430   -15.3210 o          1 KST      -0.845800
     19 H6          20.3010    11.2820   -13.9670 h4         1 KST       0.141000
     20 H7          22.2190     8.8910   -10.8840 ha         1 KST       0.151000
     21 HN1         20.6300     7.7990   -12.6200 hn         1 KST       0.384800
     22 H41         18.6910     9.5960   -13.8860 h1         1 KST       0.025200
     23 H42         19.9460     8.8550   -14.8640 h1         1 KST       0.025200
     24 H31         19.1330     6.5900   -14.1550 hc         1 KST       0.043700
     25 H32         17.8960     7.3630   -13.1690 hc         1 KST       0.043700
     26 H21         16.9010     8.4080   -15.1730 hc         1 KST       0.023200
     27 H22         18.2010     7.8100   -16.1760 hc         1 KST       0.023200
     28 H11         16.2180     6.5410   -16.5570 hc         1 KST       0.033700
     29 H12         17.4310     5.4810   -15.8710 hc         1 KST       0.033700
     30 HA          15.3980     6.7750   -14.0450 h1         1 KST       0.048700
     31 HN1A        16.4680     4.0820   -13.9480 hn         1 KST       0.321300
     32 HN2         17.2490     5.3150   -13.2430 hn         1 KST       0.321300
@<TRIPOS>BOND
     1     1     2 1   
     2     2     3 1   
     3     2     4 1   
     4     4     5 1   
     5     4     7 2   
     6     5     6 1   
     7     6     8 2   
     8     6    19 1   
     9     7     8 1   
    10     7    20 1   
    11     8     9 1   
    12     9    10 1   
    13     9    21 1   
    14    10    11 1   
    15    10    22 1   
    16    10    23 1   
    17    11    12 1   
    18    11    24 1   
    19    11    25 1   
    20    12    13 1   
    21    12    26 1   
    22    12    27 1   
    23    13    14 1   
    24    13    28 1   
    25    13    29 1   
    26    14    15 1   
    27    14    16 1   
    28    14    30 1   
    29    15    31 1   
    30    15    32 1   
    31    16    17 1   
    32    16    18 1   
@<TRIPOS>SUBSTRUCTURE
     1 KST         1 TEMP              0 ****  ****    0 ROOT
