@<TRIPOS>MOLECULE
KSU
   22    23     1     0     0
SMALL
No Charge or Current Charge


@<TRIPOS>ATOM
      1 C10         25.4380   -86.0810    58.3480 ca         1 KSU      -0.104000
      2 C13         23.6300   -88.2160    58.1070 ca         1 KSU      -0.091500
      3 C15         21.5270   -87.2580    54.0980 c5         1 KSU      -0.168400
      4 C05         20.4590   -86.8790    55.1580 c5         1 KSU      -0.168400
      5 C06         21.1650   -87.2620    56.4670 c          1 KSU       0.571000
      6 C08         23.5400   -87.1260    57.2170 ca         1 KSU      -0.049000
      7 C09         24.4530   -86.0580    57.3460 ca         1 KSU      -0.091500
      8 C11         25.5210   -87.1710    59.2300 ca         1 KSU      -0.102000
      9 C12         24.6160   -88.2380    59.1090 ca         1 KSU      -0.104000
     10 C14         22.8320   -86.9200    54.8340 c          1 KSU       0.571000
     11 N07         22.5290   -87.1030    56.1890 n          1 KSU      -0.225000
     12 O17         20.6860   -87.7530    57.4800 o          1 KSU      -0.487000
     13 H1          26.1370   -85.2520    58.4420 ha         1 KSU       0.117000
     14 H2          22.9430   -89.0550    58.0200 ha         1 KSU       0.121000
     15 H3          21.4570   -86.7490    53.1310 hc         1 KSU       0.086200
     16 H4          21.5000   -88.3430    53.9450 hc         1 KSU       0.086200
     17 H5          20.3300   -85.7900    55.1530 hc         1 KSU       0.086200
     18 H6          19.4810   -87.3640    55.0610 hc         1 KSU       0.086200
     19 H7          24.3950   -85.2030    56.6770 ha         1 KSU       0.121000
     20 H8          26.2840   -87.1880    60.0060 ha         1 KSU       0.115000
     21 H9          24.6800   -89.0850    59.7900 ha         1 KSU       0.117000
     22 O16         23.8640   -86.4410    54.3820 o          1 KSU      -0.487000
@<TRIPOS>BOND
     1     1     7 ar  
     2     1     8 ar  
     3     1    13 1   
     4     2     6 ar  
     5     2     9 ar  
     6     2    14 1   
     7     3     4 1   
     8     3    10 1   
     9     3    15 1   
    10     3    16 1   
    11     4     5 1   
    12     4    17 1   
    13     4    18 1   
    14     5    11 1   
    15     5    12 2   
    16     6     7 ar  
    17     6    11 1   
    18     7    19 1   
    19     8     9 ar  
    20     8    20 1   
    21     9    21 1   
    22    10    11 1   
    23    10    22 2   
@<TRIPOS>SUBSTRUCTURE
     1 KSU         1 TEMP              0 ****  ****    0 ROOT
