@<TRIPOS>MOLECULE
KSU
   22    23     1     0     0
SMALL
abcg2


@<TRIPOS>ATOM
      1 C10         25.2970   -86.0210    58.4460 ca         1 KSU      -0.104000
      2 C13         23.7460   -88.2810    57.9820 ca         1 KSU      -0.091500
      3 C15         21.5430   -87.1910    54.1150 c5         1 KSU      -0.168400
      4 C05         20.4750   -86.9410    55.1720 c5         1 KSU      -0.168400
      5 C06         21.2090   -86.9500    56.4880 c          1 KSU       0.571000
      6 C08         23.5540   -87.1300    57.2310 ca         1 KSU      -0.049000
      7 C09         24.3230   -85.9980    57.4580 ca         1 KSU      -0.091500
      8 C11         25.4940   -87.1680    59.2030 ca         1 KSU      -0.102000
      9 C12         24.7180   -88.2960    58.9720 ca         1 KSU      -0.104000
     10 C14         22.8460   -87.2410    54.8720 c          1 KSU       0.571000
     11 N07         22.5590   -87.1090    56.2210 n          1 KSU      -0.225000
     12 O17         20.7500   -86.8330    57.5950 o          1 KSU      -0.487000
     13 H1          25.9010   -85.1410    58.6240 ha         1 KSU       0.117000
     14 H2          23.1420   -89.1580    57.7900 ha         1 KSU       0.121000
     15 H3          21.5930   -86.4100    53.3570 hc         1 KSU       0.086200
     16 H4          21.4050   -88.1390    53.5930 hc         1 KSU       0.086200
     17 H5          19.9830   -85.9740    55.0530 hc         1 KSU       0.086200
     18 H6          19.6920   -87.6990    55.1860 hc         1 KSU       0.086200
     19 H7          24.1570   -85.1050    56.8690 ha         1 KSU       0.121000
     20 H8          26.2530   -87.1830    59.9740 ha         1 KSU       0.115000
     21 H9          24.8700   -89.1910    59.5600 ha         1 KSU       0.117000
     22 O16         23.9560   -87.3770    54.4280 o          1 KSU      -0.487000
@<TRIPOS>BOND
     1     1     7 ar  
     2     1     8 ar  
     3     1    13 1   
     4     2     6 ar  
     5     2     9 ar  
     6     2    14 1   
     7     3     4 1   
     8     3    10 1   
     9     3    15 1   
    10     3    16 1   
    11     4     5 1   
    12     4    17 1   
    13     4    18 1   
    14     5    11 1   
    15     5    12 2   
    16     6     7 ar  
    17     6    11 1   
    18     7    19 1   
    19     8     9 ar  
    20     8    20 1   
    21     9    21 1   
    22    10    11 1   
    23    10    22 2   
@<TRIPOS>SUBSTRUCTURE
     1 KSU         1 TEMP              0 ****  ****    0 ROOT
