@<TRIPOS>MOLECULE
KSV
   24    23     1     0     0
SMALL
bcc


@<TRIPOS>ATOM
      1 C2          -3.5910    -0.4440     0.1410 c3         1 KSV       0.197400
      2 C3           1.3540     0.5740    -0.0080 c3         1 KSV       0.171400
      3 O3          -1.2820     0.7410     1.8700 o          1 KSV      -0.834500
      4 C4           2.5210    -0.3890    -0.1550 c3         1 KSV       0.137100
      5 C5           3.8250     0.3940    -0.1800 c3         1 KSV       0.093400
      6 P1          -1.2220     0.6410     0.3760 p5         1 KSV       1.394800
      7 C1          -4.3450    -1.5170    -0.6110 c3         1 KSV      -0.089100
      8 O1          -2.2060    -0.5570    -0.1550 os         1 KSV      -0.564200
      9 O2          -1.4060     1.8780    -0.4520 o          1 KSV      -0.834500
     10 O4           0.1420    -0.1460    -0.0910 os         1 KSV      -0.545200
     11 O5           2.5170    -1.3920     0.8320 oh         1 KSV      -0.569800
     12 O6           4.8880    -0.4900    -0.4440 oh         1 KSV      -0.587800
     13 H1          -3.9690     0.5430    -0.1490 h1         1 KSV       0.016200
     14 H2          -3.7610    -0.5510     1.2170 h1         1 KSV       0.016200
     15 H3           1.4380     1.1020     0.9520 h1         1 KSV       0.018700
     16 H4           1.4100     1.3320    -0.7960 h1         1 KSV       0.018700
     17 H5           2.4180    -0.9140    -1.1120 h1         1 KSV       0.087700
     18 H6           3.7510     1.1770    -0.9460 h1         1 KSV       0.015200
     19 H7           3.9550     0.9080     0.7850 h1         1 KSV       0.015200
     20 H8          -5.4100    -1.4420    -0.3910 hc         1 KSV       0.022367
     21 H9          -4.2180    -1.4130    -1.6890 hc         1 KSV       0.022367
     22 H10         -4.0140    -2.5150    -0.3200 hc         1 KSV       0.022367
     23 H12          2.5920    -0.9720     1.6960 ho         1 KSV       0.391000
     24 H13          5.7040     0.0170    -0.4320 ho         1 KSV       0.385000
@<TRIPOS>BOND
     1     1     7 1   
     2     1     8 1   
     3     1    13 1   
     4     1    14 1   
     5     2     4 1   
     6     2    10 1   
     7     2    15 1   
     8     2    16 1   
     9     3     6 1   
    10     4     5 1   
    11     4    11 1   
    12     4    17 1   
    13     5    12 1   
    14     5    18 1   
    15     5    19 1   
    16     6     8 1   
    17     6     9 1   
    18     6    10 1   
    19     7    20 1   
    20     7    21 1   
    21     7    22 1   
    22    11    23 1   
    23    12    24 1   
@<TRIPOS>SUBSTRUCTURE
     1 KSV         1 TEMP              0 ****  ****    0 ROOT
