@<TRIPOS>MOLECULE
KSV
   24    23     1     0     0
SMALL
No Charge or Current Charge


@<TRIPOS>ATOM
      1 C2          -3.4370     0.0500    -0.0490 c3         1 KSV       0.220600
      2 C3           0.6660     0.1260    -0.1990 c3         1 KSV       0.194600
      3 O3          -1.9990    -1.2650     2.2880 o          1 KSV      -0.834500
      4 C4           2.1060    -0.3770     0.1190 c3         1 KSV       0.160300
      5 C5           3.1780     0.4180    -0.6720 c3         1 KSV       0.116600
      6 P1          -1.2990    -0.1600     1.5660 p5         1 KSV       1.394800
      7 C1          -2.9640    -1.0040    -1.0740 c3         1 KSV      -0.089100
      8 O1          -2.3230     0.6620     0.6230 os         1 KSV      -0.587400
      9 O2          -0.6100     0.7550     2.5230 o          1 KSV      -0.834500
     10 O4          -0.3030    -0.7290     0.4290 os         1 KSV      -0.568400
     11 O5           2.4170    -0.2820     1.5230 oh         1 KSV      -0.632000
     12 O6           4.4960    -0.0380    -0.3260 oh         1 KSV      -0.650000
     13 H1          -4.0100     0.8200    -0.5810 h1         1 KSV       0.016200
     14 H2          -4.1140    -0.4230     0.6740 h1         1 KSV       0.016200
     15 H3           0.5600     1.1700     0.1270 h1         1 KSV       0.018700
     16 H4           0.5180     0.1090    -1.2870 h1         1 KSV       0.018700
     17 H5           2.1670    -1.4240    -0.2090 h1         1 KSV       0.087700
     18 H6           3.0020     0.2840    -1.7470 h1         1 KSV       0.015200
     19 H7           3.0760     1.4890    -0.4490 h1         1 KSV       0.015200
     20 H8          -3.8140    -1.3410    -1.6780 hc         1 KSV       0.022367
     21 H9          -2.2140    -0.5800    -1.7520 hc         1 KSV       0.022367
     22 H10         -2.5420    -1.8860    -0.5780 hc         1 KSV       0.022367
     23 H12          3.4000    -0.2650     1.5550 ho         1 KSV       0.430000
     24 H13          5.1320     0.4590    -0.8880 ho         1 KSV       0.424000
@<TRIPOS>BOND
     1     1     7 1   
     2     1     8 1   
     3     1    13 1   
     4     1    14 1   
     5     2     4 1   
     6     2    10 1   
     7     2    15 1   
     8     2    16 1   
     9     3     6 1   
    10     4     5 1   
    11     4    11 1   
    12     4    17 1   
    13     5    12 1   
    14     5    18 1   
    15     5    19 1   
    16     6     8 1   
    17     6     9 1   
    18     6    10 1   
    19     7    20 1   
    20     7    21 1   
    21     7    22 1   
    22    11    23 1   
    23    12    24 1   
@<TRIPOS>SUBSTRUCTURE
     1 KSV         1 TEMP              0 ****  ****    0 ROOT
