@<TRIPOS>MOLECULE
KSW
   13    13     1     0     0
SMALL
abcg2


@<TRIPOS>ATOM
      1 C1           2.1530    -0.5790     0.0320 c3         1 KSW      -0.032900
      2 C2           0.6710    -0.5260     0.0250 cc         1 KSW      -0.188400
      3 C3          -0.2360    -1.5010     0.0950 cd         1 KSW      -0.172000
      4 C4          -1.6130    -0.9230     0.0500 cd         1 KSW      -0.143000
      5 C5          -1.5520     0.4050    -0.0500 cc         1 KSW      -0.304200
      6 C6          -0.1040     0.7660    -0.0730 c          1 KSW       0.551500
      7 O1           0.3760     1.8700    -0.1520 o          1 KSW      -0.476100
      8 H1           2.5690    -0.1610    -0.8870 hc         1 KSW       0.050367
      9 H2           2.5650     0.0020     0.8580 hc         1 KSW       0.050367
     10 H3           2.5080    -1.6040     0.1280 hc         1 KSW       0.050367
     11 H4          -0.0390    -2.5610     0.1730 ha         1 KSW       0.199000
     12 H5          -2.5070    -1.5280     0.0940 ha         1 KSW       0.198000
     13 H6          -2.3630     1.1150    -0.1050 ha         1 KSW       0.217000
@<TRIPOS>BOND
     1     1     2 1   
     2     1     8 1   
     3     1     9 1   
     4     1    10 1   
     5     2     3 2   
     6     2     6 1   
     7     3     4 1   
     8     3    11 1   
     9     4     5 2   
    10     4    12 1   
    11     5     6 1   
    12     5    13 1   
    13     6     7 2   
@<TRIPOS>SUBSTRUCTURE
     1 KSW         1 TEMP              0 ****  ****    0 ROOT
