@<TRIPOS>MOLECULE
KSW
   13    13     1     0     0
SMALL
No Charge or Current Charge


@<TRIPOS>ATOM
      1 C1           2.1350    -0.5540     0.0300 c3         1 KSW      -0.032900
      2 C2           0.6290    -0.5090     0.0240 cc         1 KSW      -0.188400
      3 C3          -0.2850    -1.5410     0.1010 cd         1 KSW      -0.172000
      4 C4          -1.6090    -0.9800     0.0550 cd         1 KSW      -0.143000
      5 C5          -1.4790     0.3870    -0.0500 cc         1 KSW      -0.304200
      6 C6          -0.0770     0.7750    -0.0770 c          1 KSW       0.551500
      7 O1           0.3890     1.9020    -0.1630 o          1 KSW      -0.476100
      8 H1           2.5440    -0.1240    -0.8920 hc         1 KSW       0.050367
      9 H2           2.5410     0.0130     0.8770 hc         1 KSW       0.050367
     10 H3           2.4990    -1.5850     0.1100 hc         1 KSW       0.050367
     11 H4          -0.0440    -2.5990     0.1830 ha         1 KSW       0.199000
     12 H5          -2.5450    -1.5370     0.0960 ha         1 KSW       0.198000
     13 H6          -2.2690     1.1280    -0.1080 ha         1 KSW       0.217000
@<TRIPOS>BOND
     1     1     2 1   
     2     1     8 1   
     3     1     9 1   
     4     1    10 1   
     5     2     3 2   
     6     2     6 1   
     7     3     4 1   
     8     3    11 1   
     9     4     5 2   
    10     4    12 1   
    11     5     6 1   
    12     5    13 1   
    13     6     7 2   
@<TRIPOS>SUBSTRUCTURE
     1 KSW         1 TEMP              0 ****  ****    0 ROOT
