@<TRIPOS>MOLECULE
KSX
   31    32     1     0     0
SMALL
No Charge or Current Charge


@<TRIPOS>ATOM
      1 N1           8.3370    -0.4740    20.6410 ns         1 KSX      -0.154000
      2 N3          16.0950    -1.4260    21.3420 n1         1 KSX      -0.437000
      3 C4           7.6060    -0.0510    18.2850 ca         1 KSX       0.337900
      4 C5           7.4960     0.1690    19.6830 ca         1 KSX      -0.087000
      5 C6           9.4470    -1.2980    20.5010 c          1 KSX       0.600100
      6 C7          10.0560    -1.7740    21.8280 c3         1 KSX      -0.105100
      7 C8          11.3210    -0.9830    22.1640 ca         1 KSX      -0.133300
      8 C10         13.5470     0.5170    22.8000 ca         1 KSX       0.379900
      9 C13         12.5860    -1.4380    21.7440 ca         1 KSX      -0.006000
     10 C12         15.0300    -1.0820    21.6720 cg         1 KSX       0.324000
     11 C11         13.7180    -0.6710    22.0710 ca         1 KSX      -0.068000
     12 N2          12.3350     0.9660    23.2070 nb         1 KSX      -0.662000
     13 C9          11.2480     0.2240    22.8910 ca         1 KSX       0.361900
     14 O            9.9330    -1.6160    19.4230 o          1 KSX      -0.568100
     15 C1           6.4990     1.0600    20.1410 ca         1 KSX      -0.075300
     16 C            6.3050     1.3570    21.6250 c3         1 KSX      -0.051800
     17 N            6.8100     0.5520    17.3700 nb         1 KSX      -0.646000
     18 C3           5.8640     1.4040    17.8210 ca         1 KSX       0.321900
     19 C2           5.6770     1.6820    19.1830 ca         1 KSX      -0.145000
     20 H1           8.0740    -0.2930    21.6020 hn         1 KSX       0.152000
     21 H2           8.3420    -0.7330    17.8660 h4         1 KSX       0.041100
     22 H3           9.3260    -1.6460    22.6370 hc         1 KSX       0.070200
     23 H4          10.3010    -2.8390    21.7340 hc         1 KSX       0.070200
     24 H5          14.4030     1.1360    23.0690 h4         1 KSX       0.035100
     25 H6          12.6850    -2.3620    21.1760 ha         1 KSX       0.140000
     26 H7          10.2880     0.6120    23.2290 h4         1 KSX       0.020100
     27 H8           6.0440     0.4470    22.1780 hc         1 KSX       0.047033
     28 H9           7.2170     1.7740    22.0670 hc         1 KSX       0.047033
     29 H10          5.5000     2.0830    21.7910 hc         1 KSX       0.047033
     30 H11          5.2370     1.8770    17.0660 h4         1 KSX       0.023100
     31 H12          4.8980     2.3770    19.4830 ha         1 KSX       0.123000
@<TRIPOS>BOND
     1     1     4 1   
     2     1     5 1   
     3     1    20 1   
     4     2    10 3   
     5     3     4 ar  
     6     3    17 ar  
     7     3    21 1   
     8     4    15 ar  
     9     5     6 1   
    10     5    14 2   
    11     6     7 1   
    12     6    22 1   
    13     6    23 1   
    14     7     9 ar  
    15     7    13 ar  
    16     8    11 ar  
    17     8    12 ar  
    18     8    24 1   
    19     9    11 ar  
    20     9    25 1   
    21    10    11 1   
    22    12    13 ar  
    23    13    26 1   
    24    15    16 1   
    25    15    19 ar  
    26    16    27 1   
    27    16    28 1   
    28    16    29 1   
    29    17    18 ar  
    30    18    19 ar  
    31    18    30 1   
    32    19    31 1   
@<TRIPOS>SUBSTRUCTURE
     1 KSX         1 TEMP              0 ****  ****    0 ROOT
