@<TRIPOS>MOLECULE
KSX
   31    32     1     0     0
SMALL
abcg2


@<TRIPOS>ATOM
      1 N1           8.1660    -0.4140    20.7310 ns         1 KSX      -0.154000
      2 N3          15.9450    -1.5990    20.7490 n1         1 KSX      -0.437000
      3 C4           7.6160    -0.1600    18.3620 ca         1 KSX       0.337900
      4 C5           7.3800     0.1430    19.7030 ca         1 KSX      -0.087000
      5 C6           9.5060    -0.6490    20.6950 c          1 KSX       0.600100
      6 C7          10.0530    -1.3150    21.9570 c3         1 KSX      -0.105100
      7 C8          11.4380    -0.8480    22.2950 ca         1 KSX      -0.133300
      8 C10         13.9050     0.1330    22.9890 ca         1 KSX       0.379900
      9 C13         12.5530    -1.3080    21.6100 ca         1 KSX      -0.006000
     10 C12         14.9870    -1.2500    21.2880 cg         1 KSX       0.324000
     11 C11         13.8090    -0.8100    21.9600 ca         1 KSX      -0.068000
     12 N2          12.8410     0.5730    23.6500 nb         1 KSX      -0.662000
     13 C9          11.6430     0.0910    23.3050 ca         1 KSX       0.361900
     14 O           10.2180    -0.3870    19.7360 o          1 KSX      -0.568100
     15 C1           6.3170     0.9940    20.0360 ca         1 KSX      -0.075300
     16 C            6.0170     1.3570    21.4590 c3         1 KSX      -0.051800
     17 N            6.8840     0.3310    17.3610 nb         1 KSX      -0.646000
     18 C3           5.8710     1.1450    17.6750 ca         1 KSX       0.321900
     19 C2           5.5570     1.4900    18.9810 ca         1 KSX      -0.145000
     20 H1           7.7030    -0.5840    21.6110 hn         1 KSX       0.152000
     21 H2           8.4250    -0.8250    18.0960 h4         1 KSX       0.041100
     22 H3           9.3820    -1.1490    22.8000 hc         1 KSX       0.070200
     23 H4          10.0590    -2.3900    21.7540 hc         1 KSX       0.070200
     24 H5          14.8720     0.5310    23.2750 h4         1 KSX       0.035100
     25 H6          12.4580    -2.0430    20.8220 ha         1 KSX       0.140000
     26 H7          10.7940     0.4700    23.8630 h4         1 KSX       0.020100
     27 H8           5.7010     0.4800    22.0330 hc         1 KSX       0.047033
     28 H9           6.9010     1.7640    21.9550 hc         1 KSX       0.047033
     29 H10          5.2180     2.0950    21.5070 hc         1 KSX       0.047033
     30 H11          5.2850     1.5330    16.8500 h4         1 KSX       0.023100
     31 H12          4.7250     2.1530    19.1810 ha         1 KSX       0.123000
@<TRIPOS>BOND
     1     1     4 1   
     2     1     5 1   
     3     1    20 1   
     4     2    10 3   
     5     3     4 ar  
     6     3    17 ar  
     7     3    21 1   
     8     4    15 ar  
     9     5     6 1   
    10     5    14 2   
    11     6     7 1   
    12     6    22 1   
    13     6    23 1   
    14     7     9 ar  
    15     7    13 ar  
    16     8    11 ar  
    17     8    12 ar  
    18     8    24 1   
    19     9    11 ar  
    20     9    25 1   
    21    10    11 1   
    22    12    13 ar  
    23    13    26 1   
    24    15    16 1   
    25    15    19 ar  
    26    16    27 1   
    27    16    28 1   
    28    16    29 1   
    29    17    18 ar  
    30    18    19 ar  
    31    18    30 1   
    32    19    31 1   
@<TRIPOS>SUBSTRUCTURE
     1 KSX         1 TEMP              0 ****  ****    0 ROOT
