@<TRIPOS>MOLECULE
KSY
   38    40     1     0     0
SMALL
abcg2


@<TRIPOS>ATOM
      1 C21          4.4350     0.2860    -0.1590 ca         1 KSY      -0.086600
      2 C20          4.7830     1.6070    -0.2900 ca         1 KSY      -0.111000
      3 C19          3.7200     2.5200    -0.2950 ca         1 KSY      -0.045000
      4 C18          2.4030     2.1240    -0.1770 ca         1 KSY      -0.191000
      5 C17         -4.7430     0.3660     1.5730 ca         1 KSY      -0.143000
      6 C16         -5.9100    -0.3820     1.6560 ca         1 KSY      -0.072000
      7 C15         -6.5170    -0.8870     0.5170 ca         1 KSY      -0.143000
      8 C10         -2.8810     1.3900     0.2190 c3         1 KSY      -0.029100
      9 C13         -5.9430    -0.6370    -0.7280 ca         1 KSY       0.141100
     10 C02          5.3070    -0.9170    -0.1180 c          1 KSY       0.584600
     11 C04          3.1180    -1.6010     0.0810 c          1 KSY       0.603600
     12 C05          3.1180    -0.1410    -0.0380 ca         1 KSY      -0.276600
     13 C06          2.0430     0.7580    -0.0430 ca         1 KSY       0.418000
     14 C08         -0.3710     1.2500     0.0780 c3         1 KSY       0.227800
     15 C09         -1.6650     0.4640     0.2070 c3         1 KSY      -0.094400
     16 C11         -4.1670     0.6200     0.3320 ca         1 KSY      -0.042300
     17 C12         -4.7750     0.1140    -0.8130 ca         1 KSY      -0.203000
     18 N03          4.4490    -1.9860     0.0260 ns         1 KSY      -0.486500
     19 N07          0.7650     0.3570     0.0680 nu         1 KSY      -0.963200
     20 O01          6.5100    -0.9740    -0.1920 o          1 KSY      -0.492000
     21 O22          2.1790    -2.3580     0.2040 o          1 KSY      -0.530000
     22 H1           5.8100     1.9300    -0.3850 ha         1 KSY       0.139000
     23 H2           3.9300     3.5770    -0.3940 ha         1 KSY       0.116000
     24 H3           1.6330     2.8830    -0.1890 ha         1 KSY       0.118000
     25 H4          -4.2820     0.7540     2.4730 ha         1 KSY       0.115000
     26 H5          -6.3590    -0.5740     2.6230 ha         1 KSY       0.116000
     27 H6          -7.4270    -1.4690     0.5860 ha         1 KSY       0.130000
     28 H7          -2.7920     2.0910     1.0520 hc         1 KSY       0.049700
     29 H8          -2.8860     1.9880    -0.6960 hc         1 KSY       0.049700
     30 H9          -0.3960     1.8420    -0.8430 h1         1 KSY       0.041200
     31 H10         -0.2910     1.9620     0.9080 h1         1 KSY       0.041200
     32 H11         -1.6470    -0.1280     1.1270 hc         1 KSY       0.056700
     33 H12         -1.7500    -0.2420    -0.6250 hc         1 KSY       0.056700
     34 H13         -4.3310     0.3110    -1.7840 ha         1 KSY       0.110000
     35 H14          4.7530    -2.9490     0.0790 hn         1 KSY       0.345500
     36 H15          0.5910    -0.6280     0.1800 hn         1 KSY       0.519000
     37 H16         -6.0700    -0.9130    -2.6150 ho         1 KSY       0.464000
     38 O14         -6.5580    -1.1430    -1.8170 oh         1 KSY      -0.533100
@<TRIPOS>BOND
     1     1     2 ar  
     2     1    10 1   
     3     1    12 ar  
     4     2     3 ar  
     5     2    22 1   
     6     3     4 ar  
     7     3    23 1   
     8     4    13 ar  
     9     4    24 1   
    10     5     6 ar  
    11     5    16 ar  
    12     5    25 1   
    13     6     7 ar  
    14     6    26 1   
    15     7     9 ar  
    16     7    27 1   
    17     8    15 1   
    18     8    16 1   
    19     8    28 1   
    20     8    29 1   
    21     9    17 ar  
    22     9    38 1   
    23    10    18 1   
    24    10    20 2   
    25    11    12 1   
    26    11    18 1   
    27    11    21 2   
    28    12    13 ar  
    29    13    19 1   
    30    14    15 1   
    31    14    19 1   
    32    14    30 1   
    33    14    31 1   
    34    15    32 1   
    35    15    33 1   
    36    16    17 ar  
    37    17    34 1   
    38    18    35 1   
    39    19    36 1   
    40    37    38 1   
@<TRIPOS>SUBSTRUCTURE
     1 KSY         1 TEMP              0 ****  ****    0 ROOT
