@<TRIPOS>MOLECULE
KSY
   38    40     1     0     0
SMALL
No Charge or Current Charge


@<TRIPOS>ATOM
      1 C21          4.4690     0.2320    -0.1740 ca         1 KSY      -0.086600
      2 C20          4.9000     1.5650    -0.2030 ca         1 KSY      -0.111000
      3 C19          3.9230     2.5760    -0.0840 ca         1 KSY      -0.045000
      4 C18          2.5530     2.2390     0.0600 ca         1 KSY      -0.191000
      5 C17         -4.7770     0.4170     1.5310 ca         1 KSY      -0.143000
      6 C16         -5.9400    -0.3530     1.7000 ca         1 KSY      -0.072000
      7 C15         -6.5380    -0.9710     0.5890 ca         1 KSY      -0.143000
      8 C10         -2.9430     1.4060     0.0730 c3         1 KSY      -0.029100
      9 C13         -5.9720    -0.8200    -0.6860 ca         1 KSY       0.141100
     10 C02          5.2420    -1.0430    -0.2730 c          1 KSY       0.584600
     11 C04          3.0000    -1.5660    -0.0380 c          1 KSY       0.603600
     12 C05          3.1210    -0.0890    -0.0320 ca         1 KSY      -0.276600
     13 C06          2.1380     0.8900     0.0860 ca         1 KSY       0.418000
     14 C08         -0.3730     1.3810     0.0570 c3         1 KSY       0.227800
     15 C09         -1.6630     0.5590     0.2350 c3         1 KSY      -0.094400
     16 C11         -4.2060     0.5750     0.2530 ca         1 KSY      -0.042300
     17 C12         -4.8100    -0.0500    -0.8560 ca         1 KSY      -0.203000
     18 N03          4.2810    -2.0060    -0.1820 ns         1 KSY      -0.486500
     19 N07          0.8060     0.5240     0.2270 nu         1 KSY      -0.963200
     20 O01          6.4440    -1.2080    -0.4050 o          1 KSY      -0.492000
     21 O22          1.9930    -2.2480     0.0600 o          1 KSY      -0.530000
     22 H1           5.9540     1.8130    -0.3140 ha         1 KSY       0.139000
     23 H2           4.2230     3.6210    -0.1020 ha         1 KSY       0.116000
     24 H3           1.8220     3.0350     0.1520 ha         1 KSY       0.118000
     25 H4          -4.3170     0.8920     2.3950 ha         1 KSY       0.115000
     26 H5          -6.3760    -0.4710     2.6900 ha         1 KSY       0.116000
     27 H6          -7.4370    -1.5680     0.7170 ha         1 KSY       0.130000
     28 H7          -2.9270     2.2270     0.8010 hc         1 KSY       0.049700
     29 H8          -2.9410     1.8780    -0.9180 hc         1 KSY       0.049700
     30 H9          -0.3670     1.8320    -0.9450 h1         1 KSY       0.041200
     31 H10         -0.3570     2.1940     0.7970 h1         1 KSY       0.041200
     32 H11         -1.6640     0.0970     1.2310 hc         1 KSY       0.056700
     33 H12         -1.6790    -0.2560    -0.5000 hc         1 KSY       0.056700
     34 H13         -4.3710     0.0660    -1.8440 ha         1 KSY       0.110000
     35 H14          4.5050    -2.9880    -0.2190 hn         1 KSY       0.345500
     36 H15          0.6510    -0.4880     0.2270 hn         1 KSY       0.519000
     37 H16         -6.0270    -1.2060    -2.5580 ho         1 KSY       0.464000
     38 O14         -6.5550    -1.4220    -1.7600 oh         1 KSY      -0.533100
@<TRIPOS>BOND
     1     1     2 ar  
     2     1    10 1   
     3     1    12 ar  
     4     2     3 ar  
     5     2    22 1   
     6     3     4 ar  
     7     3    23 1   
     8     4    13 ar  
     9     4    24 1   
    10     5     6 ar  
    11     5    16 ar  
    12     5    25 1   
    13     6     7 ar  
    14     6    26 1   
    15     7     9 ar  
    16     7    27 1   
    17     8    15 1   
    18     8    16 1   
    19     8    28 1   
    20     8    29 1   
    21     9    17 ar  
    22     9    38 1   
    23    10    18 1   
    24    10    20 2   
    25    11    12 1   
    26    11    18 1   
    27    11    21 2   
    28    12    13 ar  
    29    13    19 1   
    30    14    15 1   
    31    14    19 1   
    32    14    30 1   
    33    14    31 1   
    34    15    32 1   
    35    15    33 1   
    36    16    17 ar  
    37    17    34 1   
    38    18    35 1   
    39    19    36 1   
    40    37    38 1   
@<TRIPOS>SUBSTRUCTURE
     1 KSY         1 TEMP              0 ****  ****    0 ROOT
