@<TRIPOS>MOLECULE
KSZ
   72    75     1     0     0
SMALL
abcg2


@<TRIPOS>ATOM
      1 C4          33.2600    12.0020    -7.3480 c3         1 KSZ       0.117000
      2 C14         28.9310    16.7820    -5.1340 ca         1 KSZ      -0.070000
      3 C5          30.8320    12.0660    -7.6620 c          1 KSZ       0.632100
      4 C6          28.4640    12.5580    -8.1560 c3         1 KSZ       0.220000
      5 C11         32.0850    14.8160    -2.0050 c3         1 KSZ       0.102200
      6 C7          28.0200    11.1060    -8.2950 c3         1 KSZ      -0.109767
      7 C8          27.8470    13.4150    -9.2540 c3         1 KSZ      -0.109767
      8 C9          28.1390    13.1370    -6.7830 c3         1 KSZ      -0.109767
      9 C10         33.5520    14.3980    -2.0500 c3         1 KSZ      -0.132400
     10 C12         30.4410    15.5090    -3.5700 ce         1 KSZ       0.538500
     11 C13         30.0750    16.0090    -4.9220 ca         1 KSZ      -0.137900
     12 N1          34.5610    13.5180    -4.0840 ns         1 KSZ      -0.493900
     13 N2          32.0780    12.3110    -8.1410 ns         1 KSZ      -0.493900
     14 C3          33.4500    12.9950    -6.2060 c3         1 KSZ      -0.145400
     15 N3          31.6830    15.3520    -3.3110 n2         1 KSZ      -0.579900
     16 O1          33.0630    12.2390    -2.9650 o          1 KSZ      -0.606100
     17 C1          33.7070    13.2850    -3.0700 c          1 KSZ       0.593100
     18 C2          34.6030    12.6610    -5.2620 c3         1 KSZ       0.107000
     19 O2          29.9090    12.6740    -8.4320 os         1 KSZ      -0.489100
     20 O3          30.5970    11.3740    -6.6830 o          1 KSZ      -0.537000
     21 C15         28.6080    17.2390    -6.4050 ca         1 KSZ      -0.110000
     22 C16         29.4320    16.9080    -7.4710 ca         1 KSZ       0.134000
     23 CL1         29.0120    17.4480    -9.0790 cl         1 KSZ      -0.206000
     24 C17         30.5790    16.1450    -7.2870 ca         1 KSZ      -0.110000
     25 C18         30.8950    15.7080    -6.0110 ca         1 KSZ      -0.070000
     26 C19         29.3290    15.1960    -2.6260 ca         1 KSZ      -0.147900
     27 C20         28.2110    14.5240    -3.1090 ca         1 KSZ      -0.106000
     28 C21         27.1420    14.1960    -2.2790 ca         1 KSZ       0.142100
     29 O4          26.1140    13.5380    -2.8650 os         1 KSZ      -0.342100
     30 C22         24.9880    13.1810    -2.0590 c3         1 KSZ       0.147900
     31 C23         27.1870    14.5520    -0.9300 ca         1 KSZ      -0.170000
     32 C24         28.3010    15.2150    -0.4350 ca         1 KSZ      -0.078000
     33 C25         29.3660    15.5450    -1.2630 ca         1 KSZ      -0.017200
     34 N4          30.4970    16.2130    -0.7270 na         1 KSZ      -0.287800
     35 C26         31.8010    15.8690    -0.9900 cc         1 KSZ       0.388800
     36 N5          32.6140    16.6450    -0.3310 nd         1 KSZ      -0.342000
     37 N6          31.8350    17.5340     0.3960 nd         1 KSZ      -0.360000
     38 C27         30.5740    17.2700     0.1520 cc         1 KSZ       0.412800
     39 C28         29.4160    18.0160     0.7050 c3         1 KSZ      -0.123400
     40 H1          33.1520    10.9920    -6.9520 h1         1 KSZ       0.062200
     41 H2          34.1180    12.0040    -8.0210 h1         1 KSZ       0.062200
     42 H4          31.4810    13.9340    -1.7600 h1         1 KSZ       0.090700
     43 H5          28.4540    10.4830    -7.5160 hc         1 KSZ       0.051033
     44 H6          26.9330    11.0570    -8.2180 hc         1 KSZ       0.051033
     45 H7          28.3130    10.7140    -9.2710 hc         1 KSZ       0.051033
     46 H8          28.1970    14.4450    -9.1780 hc         1 KSZ       0.051033
     47 H9          28.1110    13.0250   -10.2380 hc         1 KSZ       0.051033
     48 H10         26.7610    13.4090    -9.1570 hc         1 KSZ       0.051033
     49 H11         28.5690    12.5350    -5.9860 hc         1 KSZ       0.051033
     50 H12         28.5180    14.1550    -6.7030 hc         1 KSZ       0.051033
     51 H13         27.0560    13.1640    -6.6570 hc         1 KSZ       0.051033
     52 H14         33.8460    14.0110    -1.0730 hc         1 KSZ       0.081700
     53 H15         34.1810    15.2550    -2.2860 hc         1 KSZ       0.081700
     54 H17         34.9640    14.4390    -4.1570 hn         1 KSZ       0.313500
     55 H18         32.1570    13.0200    -8.8530 hn         1 KSZ       0.313500
     56 H19         33.5990    13.9970    -6.6190 hc         1 KSZ       0.054700
     57 H20         32.5310    13.0150    -5.6190 hc         1 KSZ       0.054700
     58 H23         34.5350    11.6250    -4.9300 h1         1 KSZ       0.060200
     59 H24         35.5690    12.7970    -5.7490 h1         1 KSZ       0.060200
     60 H25         27.7230    17.8410    -6.5640 ha         1 KSZ       0.132500
     61 H26         31.2040    15.8840    -8.1290 ha         1 KSZ       0.132500
     62 H27         31.7770    15.1090    -5.8540 ha         1 KSZ       0.130000
     63 H28         28.1590    14.2410    -4.1500 ha         1 KSZ       0.146000
     64 H29         24.2960    12.6750    -2.7250 h1         1 KSZ       0.047033
     65 H30         25.2850    12.5070    -1.2520 h1         1 KSZ       0.047033
     66 H31         24.5130    14.0710    -1.6390 h1         1 KSZ       0.047033
     67 H32         26.3780    14.3090    -0.2570 ha         1 KSZ       0.128000
     68 H33         28.3450    15.4600     0.6160 ha         1 KSZ       0.129000
     69 H34         29.7660    18.9780     1.0750 hc         1 KSZ       0.061367
     70 H35         28.6560    18.1800    -0.0600 hc         1 KSZ       0.061367
     71 H36         28.9500    17.4790     1.5320 hc         1 KSZ       0.061367
     72 H3          28.2850    17.0380    -4.3050 ha         1 KSZ       0.130000
@<TRIPOS>BOND
     1     1    13 1   
     2     1    14 1   
     3     1    40 1   
     4     1    41 1   
     5     2    11 ar  
     6     2    21 ar  
     7     2    72 1   
     8     3    13 1   
     9     3    19 1   
    10     3    20 2   
    11     4     6 1   
    12     4     7 1   
    13     4     8 1   
    14     4    19 1   
    15     5     9 1   
    16     5    15 1   
    17     5    35 1   
    18     5    42 1   
    19     6    43 1   
    20     6    44 1   
    21     6    45 1   
    22     7    46 1   
    23     7    47 1   
    24     7    48 1   
    25     8    49 1   
    26     8    50 1   
    27     8    51 1   
    28     9    17 1   
    29     9    52 1   
    30     9    53 1   
    31    10    11 1   
    32    10    15 2   
    33    10    26 1   
    34    11    25 ar  
    35    12    17 1   
    36    12    18 1   
    37    12    54 1   
    38    13    55 1   
    39    14    18 1   
    40    14    56 1   
    41    14    57 1   
    42    16    17 2   
    43    18    58 1   
    44    18    59 1   
    45    21    22 ar  
    46    21    60 1   
    47    22    23 1   
    48    22    24 ar  
    49    24    25 ar  
    50    24    61 1   
    51    25    62 1   
    52    26    27 ar  
    53    26    33 ar  
    54    27    28 ar  
    55    27    63 1   
    56    28    29 1   
    57    28    31 ar  
    58    29    30 1   
    59    30    64 1   
    60    30    65 1   
    61    30    66 1   
    62    31    32 ar  
    63    31    67 1   
    64    32    33 ar  
    65    32    68 1   
    66    33    34 1   
    67    34    35 1   
    68    34    38 1   
    69    35    36 2   
    70    36    37 1   
    71    37    38 2   
    72    38    39 1   
    73    39    69 1   
    74    39    70 1   
    75    39    71 1   
@<TRIPOS>SUBSTRUCTURE
     1 KSZ         1 TEMP              0 ****  ****    0 ROOT
