@<TRIPOS>MOLECULE
KSZ
   72    75     1     0     0
SMALL
No Charge or Current Charge


@<TRIPOS>ATOM
      1 C4          33.2160    11.8320    -7.2790 c3         1 KSZ       0.117000
      2 C14         28.8510    16.7150    -5.0860 ca         1 KSZ      -0.070000
      3 C5          30.7470    11.9520    -7.6820 c          1 KSZ       0.632100
      4 C6          28.4800    12.5820    -8.4290 c3         1 KSZ       0.220000
      5 C11         32.1700    14.8200    -1.9380 c3         1 KSZ       0.102200
      6 C7          27.9410    11.1340    -8.5590 c3         1 KSZ      -0.109767
      7 C8          27.9820    13.4430    -9.6100 c3         1 KSZ      -0.109767
      8 C9          28.0870    13.2540    -7.0870 c3         1 KSZ      -0.109767
      9 C10         33.6780    14.4770    -2.0020 c3         1 KSZ      -0.132400
     10 C12         30.4430    15.4910    -3.5270 ce         1 KSZ       0.538500
     11 C13         30.0590    16.0030    -4.8910 ca         1 KSZ      -0.137900
     12 N1          34.5510    13.5280    -4.0940 ns         1 KSZ      -0.493900
     13 N2          32.0370    12.1630    -8.0800 ns         1 KSZ      -0.493900
     14 C3          33.3870    12.8500    -6.1380 c3         1 KSZ      -0.145400
     15 N3          31.6920    15.2090    -3.2820 n2         1 KSZ      -0.579900
     16 O1          33.5650    12.1370    -2.5800 o          1 KSZ      -0.606100
     17 C1          33.9110    13.2660    -2.9020 c          1 KSZ       0.593100
     18 C2          34.5970    12.5970    -5.2230 c3         1 KSZ       0.107000
     19 O2          29.9200    12.5730    -8.5760 os         1 KSZ      -0.489100
     20 O3          30.4210    11.3220    -6.6890 o          1 KSZ      -0.537000
     21 C15         28.5020    17.2010    -6.3590 ca         1 KSZ      -0.110000
     22 C16         29.3610    17.0000    -7.4490 ca         1 KSZ       0.134000
     23 Cl1         28.9170    17.6000    -9.0410 cl         1 KSZ      -0.206000
     24 C17         30.5780    16.3300    -7.2660 ca         1 KSZ      -0.110000
     25 C18         30.9300    15.8440    -5.9950 ca         1 KSZ      -0.070000
     26 C19         29.3400    15.2040    -2.5370 ca         1 KSZ      -0.147900
     27 C20         28.2140    14.4710    -2.9810 ca         1 KSZ      -0.106000
     28 C21         27.1610    14.1500    -2.1130 ca         1 KSZ       0.142100
     29 O4          26.0950    13.4390    -2.6280 os         1 KSZ      -0.342100
     30 C22         24.9650    13.0580    -1.8230 c3         1 KSZ       0.147900
     31 C23         27.2300    14.5450    -0.7640 ca         1 KSZ      -0.170000
     32 C24         28.3490    15.2540    -0.3000 ca         1 KSZ      -0.078000
     33 C25         29.4020    15.5990    -1.1730 ca         1 KSZ      -0.017200
     34 N4          30.5220    16.2700    -0.6730 na         1 KSZ      -0.287800
     35 C26         31.8070    15.9090    -0.9480 cc         1 KSZ       0.388800
     36 N5          32.6130    16.7280    -0.2840 nd         1 KSZ      -0.342000
     37 N6          31.8250    17.6250     0.4210 nd         1 KSZ      -0.360000
     38 C27         30.5510    17.3500     0.1730 cc         1 KSZ       0.412800
     39 C28         29.3770    18.1390     0.6820 c3         1 KSZ      -0.123400
     40 H1          33.1030    10.8200    -6.8670 h1         1 KSZ       0.062200
     41 H2          34.1030    11.8440    -7.9270 h1         1 KSZ       0.062200
     42 H4          31.6460    13.9120    -1.6060 h1         1 KSZ       0.090700
     43 H5          28.1880    10.5260    -7.6820 hc         1 KSZ       0.051033
     44 H6          26.8490    11.1410    -8.6540 hc         1 KSZ       0.051033
     45 H7          28.3550    10.6440    -9.4470 hc         1 KSZ       0.051033
     46 H8          28.3910    14.4580    -9.5510 hc         1 KSZ       0.051033
     47 H9          28.2890    13.0060   -10.5680 hc         1 KSZ       0.051033
     48 H10         26.8880    13.5170    -9.6060 hc         1 KSZ       0.051033
     49 H11         28.2770    12.6010    -6.2280 hc         1 KSZ       0.051033
     50 H12         28.6440    14.1860    -6.9420 hc         1 KSZ       0.051033
     51 H13         27.0180    13.4960    -7.0780 hc         1 KSZ       0.051033
     52 H14         34.0180    14.2240    -0.9910 hc         1 KSZ       0.081700
     53 H15         34.2340    15.3470    -2.3710 hc         1 KSZ       0.081700
     54 H17         34.8140    14.4910    -4.2620 hn         1 KSZ       0.313500
     55 H18         32.1540    12.6980    -8.9300 hn         1 KSZ       0.313500
     56 H19         33.4850    13.8510    -6.5740 hc         1 KSZ       0.054700
     57 H20         32.4770    12.8500    -5.5260 hc         1 KSZ       0.054700
     58 H23         34.5820    11.5630    -4.8540 h1         1 KSZ       0.060200
     59 H24         35.5310    12.7500    -5.7820 h1         1 KSZ       0.060200
     60 H25         27.5650    17.7350    -6.4990 ha         1 KSZ       0.132500
     61 H26         31.2490    16.1850    -8.1090 ha         1 KSZ       0.132500
     62 H27         31.8800    15.3340    -5.8740 ha         1 KSZ       0.130000
     63 H28         28.1540    14.1390    -4.0140 ha         1 KSZ       0.146000
     64 H29         24.2350    12.5060    -2.4280 h1         1 KSZ       0.047033
     65 H30         25.2770    12.4110    -0.9940 h1         1 KSZ       0.047033
     66 H31         24.4640    13.9430    -1.4100 h1         1 KSZ       0.047033
     67 H32         26.4390    14.3000    -0.0610 ha         1 KSZ       0.128000
     68 H33         28.4000    15.5180     0.7540 ha         1 KSZ       0.129000
     69 H34         29.6630    19.1790     0.8720 hc         1 KSZ       0.061367
     70 H35         28.5600    18.1450    -0.0480 hc         1 KSZ       0.061367
     71 H36         29.0020    17.7150     1.6200 hc         1 KSZ       0.061367
     72 H3          28.1750    16.9000    -4.2530 ha         1 KSZ       0.130000
@<TRIPOS>BOND
     1     1    13 1   
     2     1    14 1   
     3     1    40 1   
     4     1    41 1   
     5     2    11 ar  
     6     2    21 ar  
     7     2    72 1   
     8     3    13 1   
     9     3    19 1   
    10     3    20 2   
    11     4     6 1   
    12     4     7 1   
    13     4     8 1   
    14     4    19 1   
    15     5     9 1   
    16     5    15 1   
    17     5    35 1   
    18     5    42 1   
    19     6    43 1   
    20     6    44 1   
    21     6    45 1   
    22     7    46 1   
    23     7    47 1   
    24     7    48 1   
    25     8    49 1   
    26     8    50 1   
    27     8    51 1   
    28     9    17 1   
    29     9    52 1   
    30     9    53 1   
    31    10    11 1   
    32    10    15 2   
    33    10    26 1   
    34    11    25 ar  
    35    12    17 1   
    36    12    18 1   
    37    12    54 1   
    38    13    55 1   
    39    14    18 1   
    40    14    56 1   
    41    14    57 1   
    42    16    17 2   
    43    18    58 1   
    44    18    59 1   
    45    21    22 ar  
    46    21    60 1   
    47    22    23 1   
    48    22    24 ar  
    49    24    25 ar  
    50    24    61 1   
    51    25    62 1   
    52    26    27 ar  
    53    26    33 ar  
    54    27    28 ar  
    55    27    63 1   
    56    28    29 1   
    57    28    31 ar  
    58    29    30 1   
    59    30    64 1   
    60    30    65 1   
    61    30    66 1   
    62    31    32 ar  
    63    31    67 1   
    64    32    33 ar  
    65    32    68 1   
    66    33    34 1   
    67    34    35 1   
    68    34    38 1   
    69    35    36 2   
    70    36    37 1   
    71    37    38 2   
    72    38    39 1   
    73    39    69 1   
    74    39    70 1   
    75    39    71 1   
@<TRIPOS>SUBSTRUCTURE
     1 KSZ         1 TEMP              0 ****  ****    0 ROOT
