@<TRIPOS>MOLECULE
KT0
   50    53     1     0     0
SMALL
No Charge or Current Charge


@<TRIPOS>ATOM
      1 C13         67.5400    13.0610     4.7220 c5         1 KT0       0.119300
      2 C20         67.5140    16.9210     2.1820 ca         1 KT0       0.144500
      3 C22         65.9810    18.4560     1.4590 ca         1 KT0       0.185900
      4 C24         68.1700    19.1210     1.5310 ca         1 KT0       0.450900
      5 C26         68.5180    17.8410     2.0110 ca         1 KT0      -0.100600
      6 C28         69.4970    16.0670     2.7310 cc         1 KT0       0.404700
      7 C02         67.8160    17.9000     6.1160 ca         1 KT0       0.182100
      8 C03         68.2620    19.0570     5.4570 ca         1 KT0      -0.211000
      9 C04         67.3650    19.8740     4.7570 ca         1 KT0      -0.044000
     10 C05         66.0100    19.5260     4.7030 ca         1 KT0      -0.155000
     11 C06         65.5530    18.3690     5.3520 ca         1 KT0      -0.017000
     12 C07         66.4400    17.5390     6.0810 ca         1 KT0      -0.190600
     13 C08         65.8540    16.3190     6.7690 c          1 KT0       0.663700
     14 C12         67.7370    13.0730     6.2550 c3         1 KT0       0.210600
     15 C14         68.8180    12.7410     3.8940 c5         1 KT0       0.095300
     16 C16         68.3410    13.2030     2.4860 c5         1 KT0       0.137300
     17 C18         67.4980    14.4850     2.8510 c5         1 KT0       0.308300
     18 N09         66.6620    15.6500     7.6190 ns         1 KT0      -0.617300
     19 N19         68.1310    15.7860     2.6250 na         1 KT0      -0.293300
     20 N21         66.2250    17.2020     1.9100 nb         1 KT0      -0.210000
     21 N23         66.8950    19.4360     1.2520 nb         1 KT0      -0.299000
     22 N27         69.7730    17.3290     2.3530 nd         1 KT0      -0.561100
     23 O11         66.4500    13.2920     6.8630 os         1 KT0      -0.554700
     24 O15         69.1650    11.3440     3.8840 oh         1 KT0      -0.704000
     25 O17         67.5570    12.1490     1.9080 oh         1 KT0      -0.700000
     26 O29         67.1800    14.3830     4.2590 os         1 KT0      -0.442000
     27 O30         65.0910    14.0660     8.8530 o          1 KT0      -0.540000
     28 O31         67.6280    13.8130     9.0450 o          1 KT0      -0.540000
     29 O32         64.7000    15.9710     6.5720 o          1 KT0      -0.537100
     30 S10         66.4330    14.1450     8.2640 s6         1 KT0       1.445500
     31 H131        66.7270    12.3620     4.4790 h1         1 KT0       0.104700
     32 H221        64.9440    18.7010     1.2370 h5         1 KT0       0.050100
     33 H281        70.2200    15.3320     3.0650 h5         1 KT0       0.060800
     34 H031        69.3140    19.3330     5.4810 ha         1 KT0       0.116000
     35 H041        67.7190    20.7700     4.2510 ha         1 KT0       0.116000
     36 H051        65.3100    20.1540     4.1550 ha         1 KT0       0.128000
     37 H061        64.4930    18.1260     5.2930 ha         1 KT0       0.146000
     38 H121        68.1640    12.1170     6.5860 h1         1 KT0       0.057700
     39 H122        68.4550    13.8710     6.4940 h1         1 KT0       0.057700
     40 H141        69.6670    13.3510     4.2350 h1         1 KT0       0.040700
     41 H161        69.1900    13.4460     1.8330 h1         1 KT0       0.068700
     42 H181        66.5750    14.4890     2.2560 h2         1 KT0       0.137700
     43 H091        67.6200    15.9440     7.6910 hn         1 KT0       0.364500
     44 H011        69.6260    17.5850     6.6460 ho         1 KT0       0.484000
     45 H151        69.9520    11.2230     4.4700 ho         1 KT0       0.521000
     46 H171        67.9190    11.3420     2.3580 ho         1 KT0       0.533000
     47 N25         69.0900    20.0990     1.3160 nv         1 KT0      -1.066900
     48 O01         68.7530    17.1530     6.7700 oh         1 KT0      -0.561100
     49 H252        68.7630    21.0570     1.2370 hn         1 KT0       0.505000
     50 H251        70.0160    19.9570     1.7100 hn         1 KT0       0.505000
@<TRIPOS>BOND
     1     1    14 1   
     2     1    15 1   
     3     1    26 1   
     4     1    31 1   
     5     2     5 ar  
     6     2    19 1   
     7     2    20 ar  
     8     3    20 ar  
     9     3    21 ar  
    10     3    32 1   
    11     4     5 ar  
    12     4    21 ar  
    13     4    47 1   
    14     5    22 1   
    15     6    19 1   
    16     6    22 2   
    17     6    33 1   
    18     7     8 ar  
    19     7    12 ar  
    20     7    48 1   
    21     8     9 ar  
    22     8    34 1   
    23     9    10 ar  
    24     9    35 1   
    25    10    11 ar  
    26    10    36 1   
    27    11    12 ar  
    28    11    37 1   
    29    12    13 1   
    30    13    18 1   
    31    13    29 2   
    32    14    23 1   
    33    14    38 1   
    34    14    39 1   
    35    15    16 1   
    36    15    24 1   
    37    15    40 1   
    38    16    17 1   
    39    16    25 1   
    40    16    41 1   
    41    17    19 1   
    42    17    26 1   
    43    17    42 1   
    44    18    30 1   
    45    18    43 1   
    46    23    30 1   
    47    24    45 1   
    48    25    46 1   
    49    27    30 2   
    50    28    30 2   
    51    44    48 1   
    52    47    49 1   
    53    47    50 1   
@<TRIPOS>SUBSTRUCTURE
     1 KT0         1 TEMP              0 ****  ****    0 ROOT
