@<TRIPOS>MOLECULE
KT0
   50    53     1     0     0
SMALL
bcc


@<TRIPOS>ATOM
      1 C13         67.4770    12.9530     4.7870 c5         1 KT0       0.096100
      2 C20         67.5640    16.8800     2.2880 ca         1 KT0       0.472800
      3 C22         66.2870    18.2340     1.1250 ca         1 KT0       0.711900
      4 C24         68.3340    19.0590     1.7700 ca         1 KT0       0.779200
      5 C26         68.5770    17.8180     2.3830 ca         1 KT0      -0.231200
      6 C28         69.2670    16.1210     3.4310 cc         1 KT0       0.404700
      7 C02         67.8380    18.1110     5.9050 ca         1 KT0       0.182100
      8 C03         68.0640    19.3310     5.2730 ca         1 KT0      -0.229000
      9 C04         67.0350    19.9820     4.6210 ca         1 KT0      -0.062000
     10 C05         65.7640    19.4210     4.5770 ca         1 KT0      -0.173000
     11 C06         65.5410    18.2130     5.2040 ca         1 KT0      -0.035000
     12 C07         66.5570    17.5350     5.8850 ca         1 KT0      -0.190600
     13 C08         66.1600    16.2620     6.5440 c          1 KT0       0.730700
     14 C12         67.8980    12.9100     6.2310 c3         1 KT0       0.187400
     15 C14         68.6130    12.6350     3.8110 c5         1 KT0       0.072100
     16 C16         68.1040    13.3180     2.5370 c5         1 KT0       0.114100
     17 C18         67.3330    14.5270     3.0930 c5         1 KT0       0.255800
     18 N09         67.0880    15.6800     7.3870 ns         1 KT0      -0.684300
     19 N19         68.0260    15.7830     2.9610 na         1 KT0      -0.264000
     20 N21         66.3970    17.0330     1.6670 nb         1 KT0      -0.736000
     21 N23         67.1680    19.2300     1.1370 nb         1 KT0      -0.825000
     22 N27         69.6320    17.3240     3.1060 nd         1 KT0      -0.561100
     23 O11         66.7370    13.1690     7.0520 os         1 KT0      -0.531500
     24 O15         68.8310    11.2760     3.5900 oh         1 KT0      -0.581800
     25 O17         67.1740    12.5190     1.8600 oh         1 KT0      -0.577800
     26 O29         67.0960    14.2740     4.4560 os         1 KT0      -0.395600
     27 O30         65.5320    14.2410     8.8160 o          1 KT0      -0.610800
     28 O31         68.0260    14.0580     8.9790 o          1 KT0      -0.610800
     29 O32         65.0650    15.7700     6.3900 o          1 KT0      -0.537100
     30 S10         66.8290    14.2600     8.2010 s6         1 KT0       1.587100
     31 H131        66.6500    12.2510     4.6190 h1         1 KT0       0.104700
     32 H221        65.3590    18.4370     0.6000 h5         1 KT0       0.050100
     33 H281        69.8620    15.4370     4.0190 h5         1 KT0       0.060800
     34 H031        69.0570    19.7650     5.2870 ha         1 KT0       0.134000
     35 H041        67.2320    20.9280     4.1350 ha         1 KT0       0.134000
     36 H051        64.9580    19.9240     4.0610 ha         1 KT0       0.146000
     37 H061        64.5530    17.7750     5.1810 ha         1 KT0       0.164000
     38 H121        68.2720    11.9200     6.4920 h1         1 KT0       0.057700
     39 H122        68.6920    13.6380     6.4130 h1         1 KT0       0.057700
     40 H141        69.5290    13.1440     4.1420 h1         1 KT0       0.040700
     41 H161        68.9250    13.6300     1.8800 h1         1 KT0       0.068700
     42 H181        66.3920    14.6480     2.5480 h2         1 KT0       0.137700
     43 H091        68.0220    16.0770     7.4640 hn         1 KT0       0.364500
     44 H011        69.6690    17.9520     6.4780 ho         1 KT0       0.445000
     45 H151        69.4450    10.9390     4.2490 ho         1 KT0       0.422000
     46 H171        67.5900    11.6770     1.6460 ho         1 KT0       0.434000
     47 N25         69.2170    20.0590     1.7900 nv         1 KT0      -0.956500
     48 O01         68.8370    17.4660     6.5370 oh         1 KT0      -0.522100
     49 H252        68.9760    20.9530     1.3980 hn         1 KT0       0.449800
     50 H251        70.0690    19.9880     2.3190 hn         1 KT0       0.449800
@<TRIPOS>BOND
     1     1    14 1   
     2     1    15 1   
     3     1    26 1   
     4     1    31 1   
     5     2     5 ar  
     6     2    19 1   
     7     2    20 ar  
     8     3    20 ar  
     9     3    21 ar  
    10     3    32 1   
    11     4     5 ar  
    12     4    21 ar  
    13     4    47 1   
    14     5    22 1   
    15     6    19 1   
    16     6    22 2   
    17     6    33 1   
    18     7     8 ar  
    19     7    12 ar  
    20     7    48 1   
    21     8     9 ar  
    22     8    34 1   
    23     9    10 ar  
    24     9    35 1   
    25    10    11 ar  
    26    10    36 1   
    27    11    12 ar  
    28    11    37 1   
    29    12    13 1   
    30    13    18 1   
    31    13    29 2   
    32    14    23 1   
    33    14    38 1   
    34    14    39 1   
    35    15    16 1   
    36    15    24 1   
    37    15    40 1   
    38    16    17 1   
    39    16    25 1   
    40    16    41 1   
    41    17    19 1   
    42    17    26 1   
    43    17    42 1   
    44    18    30 1   
    45    18    43 1   
    46    23    30 1   
    47    24    45 1   
    48    25    46 1   
    49    27    30 2   
    50    28    30 2   
    51    44    48 1   
    52    47    49 1   
    53    47    50 1   
@<TRIPOS>SUBSTRUCTURE
     1 KT0         1 TEMP              0 ****  ****    0 ROOT
