@<TRIPOS>MOLECULE
KT1
   42    44     1     0     0
SMALL
No Charge or Current Charge


@<TRIPOS>ATOM
      1 C21         -4.4200     2.5480    -0.0130 ca         1 KT1      -0.046000
      2 C23         -4.9910     0.2100     0.0720 ca         1 KT1      -0.087600
      3 C22         -5.4130     1.5460     0.0260 ca         1 KT1      -0.112000
      4 C20         -3.0460     2.2000    -0.0060 ca         1 KT1      -0.190000
      5 C17          4.3390     0.1820    -0.6890 ca         1 KT1       0.183100
      6 C19          4.3810     0.3790    -3.1550 c3         1 KT1       0.146900
      7 C16          5.5130    -0.6030    -0.6730 ca         1 KT1      -0.237000
      8 C11          3.6910     0.4960     0.5270 ca         1 KT1      -0.152300
      9 C10          2.4170     1.3400     0.5510 c3         1 KT1      -0.006100
     10 C12          4.2220     0.0180     1.7420 ca         1 KT1      -0.033000
     11 C13          5.3890    -0.7620     1.7460 ca         1 KT1      -0.242000
     12 C14          6.0300    -1.0690     0.5400 ca         1 KT1       0.178100
     13 C02         -5.7810    -1.0580     0.1200 c          1 KT1       0.585600
     14 C04         -3.5310    -1.5990     0.1320 c          1 KT1       0.603600
     15 C05         -3.6390    -0.1220     0.0790 ca         1 KT1      -0.278600
     16 C06         -2.6410     0.8490     0.0420 ca         1 KT1       0.419000
     17 C08         -0.1410     1.3270     0.3050 c3         1 KT1       0.226800
     18 C09          1.1540     0.4930     0.2840 c3         1 KT1      -0.093400
     19 N03         -4.8240    -2.0280     0.1510 ns         1 KT1      -0.486500
     20 N07         -1.3050     0.4710     0.0490 nu         1 KT1      -0.961200
     21 O01         -6.9920    -1.2130     0.1300 o          1 KT1      -0.494000
     22 O15          7.1600    -1.8250     0.5430 oh         1 KT1      -0.533100
     23 O24         -2.5250    -2.2890     0.1540 o          1 KT1      -0.529000
     24 H1          -4.7120     3.5950    -0.0500 ha         1 KT1       0.116000
     25 H2          -6.4710     1.8020     0.0210 ha         1 KT1       0.138000
     26 H3          -2.3020     2.9890    -0.0400 ha         1 KT1       0.119000
     27 H4           5.4030     0.7750    -3.2140 h1         1 KT1       0.043033
     28 H5           4.4090    -0.7010    -3.3460 h1         1 KT1       0.043033
     29 H6           3.7900     0.8490    -3.9500 h1         1 KT1       0.043033
     30 H7           6.0330    -0.8610    -1.5890 ha         1 KT1       0.134000
     31 H8           2.3120     1.8380     1.5230 hc         1 KT1       0.046700
     32 H9           2.4770     2.1450    -0.1910 hc         1 KT1       0.046700
     33 H10          3.7280     0.2500     2.6830 ha         1 KT1       0.113000
     34 H11          5.7870    -1.1230     2.6920 ha         1 KT1       0.117000
     35 H12         -0.2430     1.8130     1.2860 h1         1 KT1       0.040700
     36 H13         -0.0770     2.1140    -0.4590 h1         1 KT1       0.040700
     37 H14          1.2500     0.0020    -0.6910 hc         1 KT1       0.056700
     38 H15          1.0890    -0.2980     1.0410 hc         1 KT1       0.056700
     39 H16         -5.0580    -3.0080     0.1870 hn         1 KT1       0.344500
     40 H17         -1.1580    -0.5410     0.0870 hn         1 KT1       0.518000
     41 H18          7.3690    -2.0560     1.4730 ho         1 KT1       0.466000
     42 O18          3.7980     0.6570    -1.8700 os         1 KT1      -0.343100
@<TRIPOS>BOND
     1     1     3 ar  
     2     1     4 ar  
     3     1    24 1   
     4     2     3 ar  
     5     2    13 1   
     6     2    15 ar  
     7     3    25 1   
     8     4    16 ar  
     9     4    26 1   
    10     5     7 ar  
    11     5     8 ar  
    12     5    42 1   
    13     6    27 1   
    14     6    28 1   
    15     6    29 1   
    16     6    42 1   
    17     7    12 ar  
    18     7    30 1   
    19     8     9 1   
    20     8    10 ar  
    21     9    18 1   
    22     9    31 1   
    23     9    32 1   
    24    10    11 ar  
    25    10    33 1   
    26    11    12 ar  
    27    11    34 1   
    28    12    22 1   
    29    13    19 1   
    30    13    21 2   
    31    14    15 1   
    32    14    19 1   
    33    14    23 2   
    34    15    16 ar  
    35    16    20 1   
    36    17    18 1   
    37    17    20 1   
    38    17    35 1   
    39    17    36 1   
    40    18    37 1   
    41    18    38 1   
    42    19    39 1   
    43    20    40 1   
    44    22    41 1   
@<TRIPOS>SUBSTRUCTURE
     1 KT1         1 TEMP              0 ****  ****    0 ROOT
