@<TRIPOS>MOLECULE
KT1
   42    44     1     0     0
SMALL
bcc


@<TRIPOS>ATOM
      1 C21         -4.2200     2.5210     0.0560 ca         1 KT1      -0.064000
      2 C23         -4.9380     0.2870    -0.0680 ca         1 KT1      -0.087600
      3 C22         -5.2810     1.6150    -0.0710 ca         1 KT1      -0.130000
      4 C20         -2.9070     2.1110     0.1750 ca         1 KT1      -0.208000
      5 C17          4.2600     0.1550    -0.6760 ca         1 KT1       0.183100
      6 C19          4.1280     0.1620    -3.0520 c3         1 KT1       0.123700
      7 C16          5.4570    -0.5530    -0.7000 ca         1 KT1      -0.255000
      8 C11          3.6760     0.5470     0.5400 ca         1 KT1      -0.152300
      9 C10          2.3740     1.2970     0.5830 c3         1 KT1      -0.006100
     10 C12          4.3360     0.1950     1.7060 ca         1 KT1      -0.051000
     11 C13          5.5320    -0.5130     1.7090 ca         1 KT1      -0.260000
     12 C14          6.0920    -0.8860     0.4960 ca         1 KT1       0.178100
     13 C02         -5.8100    -0.9120    -0.1810 c          1 KT1       0.728100
     14 C04         -3.6280    -1.6190     0.0180 c          1 KT1       0.746100
     15 C05         -3.6240    -0.1530     0.0500 ca         1 KT1      -0.278600
     16 C06         -2.5510     0.7380     0.1710 ca         1 KT1       0.280600
     17 C08         -0.1380     1.1940     0.4420 c3         1 KT1       0.226800
     18 C09          1.1550     0.3960     0.3900 c3         1 KT1      -0.093400
     19 N03         -4.9570    -1.9920    -0.1200 ns         1 KT1      -0.620500
     20 N07         -1.2760     0.3210     0.2700 nu         1 KT1      -0.767600
     21 O01         -7.0090    -0.9570    -0.3020 o          1 KT1      -0.569500
     22 O15          7.2520    -1.5700     0.4030 oh         1 KT1      -0.494100
     23 O24         -2.6940    -2.3870     0.0930 o          1 KT1      -0.604500
     24 H1          -4.4270     3.5830     0.0650 ha         1 KT1       0.134000
     25 H2          -6.3050     1.9500    -0.1650 ha         1 KT1       0.156000
     26 H3          -2.1380     2.8650     0.2720 ha         1 KT1       0.137000
     27 H4           5.1080     0.6160    -3.2210 h1         1 KT1       0.043033
     28 H5           4.2160    -0.9210    -3.1750 h1         1 KT1       0.043033
     29 H6           3.4340     0.5420    -3.7970 h1         1 KT1       0.043033
     30 H7           5.9180    -0.8530    -1.6310 ha         1 KT1       0.152000
     31 H8           2.2930     1.7970     1.5530 hc         1 KT1       0.046700
     32 H9           2.3610     2.0910    -0.1690 hc         1 KT1       0.046700
     33 H10          3.9030     0.4870     2.6560 ha         1 KT1       0.131000
     34 H11          6.0170    -0.7600     2.6460 ha         1 KT1       0.135000
     35 H12         -0.2010     1.7320     1.3960 h1         1 KT1       0.040700
     36 H13         -0.1250     1.9520    -0.3470 h1         1 KT1       0.040700
     37 H14          1.2190    -0.1230    -0.5700 hc         1 KT1       0.056700
     38 H15          1.1450    -0.3720     1.1690 hc         1 KT1       0.056700
     39 H16         -5.2620    -2.9540    -0.1720 hn         1 KT1       0.344500
     40 H17         -1.1150    -0.6730     0.3180 hn         1 KT1       0.462800
     41 H18          7.6110    -1.7350     1.2810 ho         1 KT1       0.427000
     42 O18          3.5940     0.5090    -1.7920 os         1 KT1      -0.319900
@<TRIPOS>BOND
     1     1     3 ar  
     2     1     4 ar  
     3     1    24 1   
     4     2     3 ar  
     5     2    13 1   
     6     2    15 ar  
     7     3    25 1   
     8     4    16 ar  
     9     4    26 1   
    10     5     7 ar  
    11     5     8 ar  
    12     5    42 1   
    13     6    27 1   
    14     6    28 1   
    15     6    29 1   
    16     6    42 1   
    17     7    12 ar  
    18     7    30 1   
    19     8     9 1   
    20     8    10 ar  
    21     9    18 1   
    22     9    31 1   
    23     9    32 1   
    24    10    11 ar  
    25    10    33 1   
    26    11    12 ar  
    27    11    34 1   
    28    12    22 1   
    29    13    19 1   
    30    13    21 2   
    31    14    15 1   
    32    14    19 1   
    33    14    23 2   
    34    15    16 ar  
    35    16    20 1   
    36    17    18 1   
    37    17    20 1   
    38    17    35 1   
    39    17    36 1   
    40    18    37 1   
    41    18    38 1   
    42    19    39 1   
    43    20    40 1   
    44    22    41 1   
@<TRIPOS>SUBSTRUCTURE
     1 KT1         1 TEMP              0 ****  ****    0 ROOT
