@<TRIPOS>MOLECULE
KT3
   92    93     1     0     0
SMALL
abcg2


@<TRIPOS>ATOM
      1 N2A         -4.7990     1.9220     5.2490 ns         1 KT3      -0.486900
      2 CD1         -4.5740     2.7370     6.2920 c          1 KT3       0.580100
      3 OEB         -4.0990     3.8590     6.1800 o          1 KT3      -0.560100
      4 CG1         -5.0300     2.2000     7.6340 c3         1 KT3      -0.147400
      5 CB1         -4.1920     2.6700     8.8150 c3         1 KT3      -0.062400
      6 CA1         -2.7280     2.2040     8.7870 c3         1 KT3      -0.041300
      7 C1A         -2.0750     2.5240    10.1530 c          1 KT3       0.706000
      8 O11         -1.7880     3.7160    10.3540 o          1 KT3      -0.735500
      9 O1A         -1.9370     1.5690    10.9450 o          1 KT3      -0.735500
     10 N1A         -2.6190     0.7890     8.5160 ns         1 KT3      -0.457900
     11 C           -2.2210     0.2580     7.3530 c          1 KT3       0.573700
     12 O           -2.0020     0.9070     6.3380 o          1 KT3      -0.572100
     13 C14         -2.0760    -1.2310     7.3530 ca         1 KT3      -0.097600
     14 C15         -2.4680    -1.9390     6.2230 ca         1 KT3      -0.078000
     15 C16         -2.3410    -3.3190     6.1910 ca         1 KT3      -0.118500
     16 C13         -1.5400    -1.9270     8.4340 ca         1 KT3      -0.078000
     17 C12         -1.3930    -3.3040     8.3840 ca         1 KT3      -0.118500
     18 C11         -1.7950    -4.0230     7.2610 ca         1 KT3      -0.149300
     19 C10         -1.7010    -5.5300     7.1970 c3         1 KT3       0.031600
     20 C5          -0.2580    -6.0600     7.0490 c3         1 KT3       0.361000
     21 C6           0.4840    -5.3920     5.8620 c3         1 KT3       0.233000
     22 F2           0.7770    -4.1130     6.0800 f          1 KT3      -0.109667
     23 F1          -0.2240    -5.4610     4.7320 f          1 KT3      -0.109667
     24 F3           1.6520    -6.0200     5.6300 f          1 KT3      -0.109667
     25 OA2         -0.3720    -7.4170     6.7620 oh         1 KT3      -0.653000
     26 OA1          0.4300    -5.7930     8.2210 oh         1 KT3      -0.653000
     27 C1          -2.4140    -6.1850     8.3900 c3         1 KT3      -0.056400
     28 C2          -3.9000    -5.8500     8.4160 c3         1 KT3      -0.081400
     29 C3          -4.6230    -6.5370     9.5770 c3         1 KT3       0.006900
     30 C4          -6.0890    -6.2180     9.6320 ca         1 KT3      -0.313300
     31 C7          -7.0520    -6.9090     8.8760 ca         1 KT3       0.416900
     32 N8          -6.7060    -7.9470     8.0780 nv         1 KT3      -1.067900
     33 C9          -6.6120    -5.1790    10.3870 ca         1 KT3       0.413300
     34 O1          -5.7780    -4.4300    11.1080 oh         1 KT3      -0.625300
     35 N3          -7.8980    -4.8640    10.4490 nb         1 KT3      -0.358000
     36 C8          -8.7170    -5.6130     9.7120 ca         1 KT3       0.429900
     37 N2         -10.0420    -5.3450     9.8030 nv         1 KT3      -1.059900
     38 N1          -8.3550    -6.6150     8.9200 nb         1 KT3      -0.354000
     39 OEN         -4.5100     6.6770     9.4250 o          1 KT3      -0.772000
     40 OED         -2.9420     7.5990     8.1410 o          1 KT3      -0.772000
     41 CD3         -4.0710     7.1020     8.3350 c          1 KT3       0.725000
     42 CB3         -4.5010     7.5080     5.8120 c3         1 KT3      -0.041400
     43 CA3         -5.5300     7.4530     4.6740 c3         1 KT3      -0.025300
     44 C3A         -6.7260     8.3860     4.9740 c          1 KT3       0.719000
     45 O3          -6.4600     9.6010     5.0240 o          1 KT3      -0.767500
     46 O12         -7.8420     7.8570     5.1570 o          1 KT3      -0.767500
     47 N3A         -6.0030     6.1110     4.4320 ns         1 KT3      -0.457900
     48 OEC         -4.3700     5.4040     3.0380 o          1 KT3      -0.665100
     49 CD2         -5.4110     5.2000     3.6530 c          1 KT3       0.609100
     50 CG2         -6.1970     3.9080     3.5190 c3         1 KT3      -0.150400
     51 CB2         -5.4150     2.7190     2.9880 c3         1 KT3      -0.045400
     52 CA2         -4.3140     2.1780     3.9130 c3         1 KT3      -0.024300
     53 C2A         -3.7740     0.8730     3.2880 c          1 KT3       0.721000
     54 O2          -4.2290    -0.2010     3.7350 o          1 KT3      -0.766000
     55 O13         -2.9750     1.0110     2.3430 o          1 KT3      -0.766000
     56 H2          -5.0090     0.9510     5.4310 hn         1 KT3       0.301500
     57 HG11        -5.0870     1.1090     7.6150 hc         1 KT3       0.018200
     58 HG21        -6.0590     2.5460     7.7820 hc         1 KT3       0.018200
     59 HB11        -4.6660     2.2920     9.7260 hc         1 KT3       0.066200
     60 HB21        -4.2070     3.7600     8.8820 hc         1 KT3       0.066200
     61 HA1A        -2.2060     2.7400     7.9940 h1         1 KT3       0.099700
     62 H1          -2.7240     0.1940     9.3230 hn         1 KT3       0.306500
     63 H15         -2.8990    -1.4130     5.3790 ha         1 KT3       0.169000
     64 H16         -2.6820    -3.8600     5.3160 ha         1 KT3       0.096000
     65 H13         -1.2080    -1.3960     9.3190 ha         1 KT3       0.169000
     66 H12         -0.9640    -3.8140     9.2360 ha         1 KT3       0.096000
     67 H10         -2.2310    -5.8510     6.2950 hc         1 KT3       0.066700
     68 HA2          0.4940    -7.8390     6.7020 ho         1 KT3       0.440000
     69 HA1          1.3430    -6.1040     8.1830 ho         1 KT3       0.440000
     70 H11         -2.2960    -7.2690     8.3350 hc         1 KT3       0.038200
     71 H12A        -1.9550    -5.8690     9.3300 hc         1 KT3       0.038200
     72 H21         -4.0440    -4.7700     8.5020 hc         1 KT3       0.056700
     73 H22         -4.3570    -6.1440     7.4650 hc         1 KT3       0.056700
     74 H31         -4.1450    -6.2440    10.5130 hc         1 KT3       0.035700
     75 H32         -4.4790    -7.6200     9.5090 hc         1 KT3       0.035700
     76 HN81        -7.3970    -8.2690     7.4210 hn         1 KT3       0.478000
     77 HN82        -5.7530    -8.0430     7.7740 hn         1 KT3       0.478000
     78 HO1         -6.2940    -3.7580    11.5730 ho         1 KT3       0.493000
     79 HN21       -10.6400    -5.7100     9.0820 hn         1 KT3       0.481500
     80 HN22       -10.3120    -4.4550    10.1860 hn         1 KT3       0.481500
     81 HG13        -5.9460     7.5650     7.4190 hc         1 KT3       0.025200
     82 HG23        -5.3430     5.9700     7.0440 hc         1 KT3       0.025200
     83 HA3         -5.0450     7.8130     3.7610 h1         1 KT3       0.024700
     84 H3          -6.8860     5.8850     4.8620 hn         1 KT3       0.317500
     85 HG12        -7.0250     4.1090     2.8300 hc         1 KT3       0.024200
     86 HG22        -6.6660     3.6570     4.4730 hc         1 KT3       0.024200
     87 HB12        -4.9640     2.9700     2.0260 hc         1 KT3       0.020200
     88 HB22        -6.1320     1.9150     2.7960 hc         1 KT3       0.020200
     89 HA2A        -3.5110     2.9120     3.9710 h1         1 KT3       0.097700
     90 HB13        -4.1490     8.5370     5.8970 hc         1 KT3       0.038700
     91 CG3         -5.0390     7.0140     7.1440 c3         1 KT3      -0.195400
     92 HB23        -3.6360     6.9070     5.5240 hc         1 KT3       0.038700
@<TRIPOS>BOND
     1     1     2 1   
     2     1    52 1   
     3     1    56 1   
     4     2     3 2   
     5     2     4 1   
     6     4     5 1   
     7     4    57 1   
     8     4    58 1   
     9     5     6 1   
    10     5    59 1   
    11     5    60 1   
    12     6     7 1   
    13     6    10 1   
    14     6    61 1   
    15     7     8 1   
    16     7     9 1   
    17    10    11 1   
    18    10    62 1   
    19    11    12 2   
    20    11    13 1   
    21    13    14 ar  
    22    13    16 ar  
    23    14    15 ar  
    24    14    63 1   
    25    15    18 ar  
    26    15    64 1   
    27    16    17 ar  
    28    16    65 1   
    29    17    18 ar  
    30    17    66 1   
    31    18    19 1   
    32    19    20 1   
    33    19    27 1   
    34    19    67 1   
    35    20    21 1   
    36    20    25 1   
    37    20    26 1   
    38    21    22 1   
    39    21    23 1   
    40    21    24 1   
    41    25    68 1   
    42    26    69 1   
    43    27    28 1   
    44    27    70 1   
    45    27    71 1   
    46    28    29 1   
    47    28    72 1   
    48    28    73 1   
    49    29    30 1   
    50    29    74 1   
    51    29    75 1   
    52    30    31 ar  
    53    30    33 ar  
    54    31    32 1   
    55    31    38 ar  
    56    32    76 1   
    57    32    77 1   
    58    33    34 1   
    59    33    35 ar  
    60    34    78 1   
    61    35    36 ar  
    62    36    37 1   
    63    36    38 ar  
    64    37    79 1   
    65    37    80 1   
    66    39    41 1   
    67    40    41 1   
    68    41    91 1   
    69    42    43 1   
    70    42    90 1   
    71    42    91 1   
    72    42    92 1   
    73    43    44 1   
    74    43    47 1   
    75    43    83 1   
    76    44    45 1   
    77    44    46 1   
    78    47    49 1   
    79    47    84 1   
    80    48    49 2   
    81    49    50 1   
    82    50    51 1   
    83    50    85 1   
    84    50    86 1   
    85    51    52 1   
    86    51    87 1   
    87    51    88 1   
    88    52    53 1   
    89    52    89 1   
    90    53    54 1   
    91    53    55 1   
    92    81    91 1   
    93    82    91 1   
@<TRIPOS>SUBSTRUCTURE
     1 KT3         1 TEMP              0 ****  ****    0 ROOT
