@<TRIPOS>MOLECULE
KT3
   92    93     1     0     0
SMALL
No Charge or Current Charge


@<TRIPOS>ATOM
      1 N2A         -4.1110     2.6300     5.3440 ns         1 KT3      -0.486900
      2 CD1         -4.4830     3.2090     6.5360 c          1 KT3       0.580100
      3 OEB         -4.8080     4.3840     6.6200 o          1 KT3      -0.560100
      4 CG1         -4.5020     2.2690     7.7510 c3         1 KT3      -0.147400
      5 CB1         -3.2710     2.4830     8.6680 c3         1 KT3      -0.062400
      6 CA1         -1.9170     1.9930     8.0840 c3         1 KT3      -0.041300
      7 C1A         -0.7180     2.5580     8.9030 c          1 KT3       0.706000
      8 O11          0.0050     3.3880     8.3720 o          1 KT3      -0.735500
      9 O1A         -0.4920     2.0830    10.0090 o          1 KT3      -0.735500
     10 N1A         -1.8380     0.5100     8.0330 ns         1 KT3      -0.457900
     11 C           -2.1750    -0.2840     6.9540 c          1 KT3       0.573700
     12 O           -2.5730     0.2050     5.9050 o          1 KT3      -0.572100
     13 C14         -2.0290    -1.7830     7.1340 ca         1 KT3      -0.097600
     14 C15         -2.3430    -2.6420     6.0580 ca         1 KT3      -0.078000
     15 C16         -2.2200    -4.0360     6.1870 ca         1 KT3      -0.118500
     16 C13         -1.5900    -2.3630     8.3490 ca         1 KT3      -0.078000
     17 C12         -1.4680    -3.7580     8.4730 ca         1 KT3      -0.118500
     18 C11         -1.7790    -4.6090     7.3940 ca         1 KT3      -0.149300
     19 C10         -1.6530    -6.1400     7.5190 c3         1 KT3       0.031600
     20 C5          -0.1570    -6.6510     7.5600 c3         1 KT3       0.361000
     21 C6           0.7370    -6.0890     6.3750 c3         1 KT3       0.233000
     22 F2           0.9710    -4.7600     6.4920 f          1 KT3      -0.109667
     23 F1           0.1550    -6.3020     5.1700 f          1 KT3      -0.109667
     24 F3           1.9460    -6.7020     6.3510 f          1 KT3      -0.109667
     25 OA2         -0.1650    -8.0770     7.5090 oh         1 KT3      -0.653000
     26 OA1          0.4380    -6.3470     8.8210 oh         1 KT3      -0.653000
     27 C1          -2.5380    -6.6840     8.6860 c3         1 KT3      -0.056400
     28 C2          -4.0350    -6.3000     8.5740 c3         1 KT3      -0.081400
     29 C3          -4.9000    -6.8970     9.7040 c3         1 KT3       0.006900
     30 C4          -6.3770    -6.5050     9.5690 ca         1 KT3      -0.313300
     31 C7          -7.3050    -7.2720     8.8460 ca         1 KT3       0.416900
     32 N8          -6.9730    -8.4190     8.2060 nv         1 KT3      -1.067900
     33 C9          -6.8920    -5.3340    10.1590 ca         1 KT3       0.413300
     34 O1          -6.1050    -4.4970    10.8760 oh         1 KT3      -0.625300
     35 N3          -8.1770    -4.9760    10.0460 nb         1 KT3      -0.358000
     36 C8          -8.9450    -5.8010     9.3350 ca         1 KT3       0.429900
     37 N2         -10.2390    -5.4450     9.2160 nv         1 KT3      -1.059900
     38 N1          -8.5890    -6.9300     8.7220 nb         1 KT3      -0.354000
     39 OEN         -5.2450     9.6540     8.8390 o          1 KT3      -0.772000
     40 OED         -4.1550     7.8110     9.0300 o          1 KT3      -0.772000
     41 CD3         -5.0310     8.4930     8.5220 c          1 KT3       0.725000
     42 CB3         -5.1900     8.1530     6.0160 c3         1 KT3      -0.041400
     43 CA3         -5.9800     7.6730     4.7690 c3         1 KT3      -0.025300
     44 C3A         -7.3570     8.4130     4.6090 c          1 KT3       0.719000
     45 O3          -7.3650     9.4850     4.0180 o          1 KT3      -0.767500
     46 O12         -8.3850     7.8740     5.0050 o          1 KT3      -0.767500
     47 N3A         -6.1270     6.1980     4.7340 ns         1 KT3      -0.457900
     48 OEC         -6.5910     5.9950     2.5110 o          1 KT3      -0.665100
     49 CD2         -6.4370     5.4700     3.6080 c          1 KT3       0.609100
     50 CG2         -6.6190     3.9590     3.8240 c3         1 KT3      -0.150400
     51 CB2         -5.4300     3.1400     3.2610 c3         1 KT3      -0.045400
     52 CA2         -4.0850     3.3110     4.0240 c3         1 KT3      -0.024300
     53 C2A         -2.8590     2.8210     3.1860 c          1 KT3       0.721000
     54 O2          -2.9540     1.7910     2.5310 o          1 KT3      -0.766000
     55 O13         -1.8490     3.5120     3.1870 o          1 KT3      -0.766000
     56 H2          -3.7880     1.6660     5.3950 hn         1 KT3       0.301500
     57 HG11        -4.5270     1.2220     7.4300 hc         1 KT3       0.018200
     58 HG21        -5.3980     2.4880     8.3440 hc         1 KT3       0.018200
     59 HB11        -3.4460     1.9770     9.6260 hc         1 KT3       0.066200
     60 HB21        -3.1930     3.5530     8.8990 hc         1 KT3       0.066200
     61 HA1A        -1.8020     2.3910     7.0670 h1         1 KT3       0.099700
     62 H1          -1.4920     0.0380     8.8580 hn         1 KT3       0.306500
     63 H15         -2.6850    -2.2290     5.1100 ha         1 KT3       0.169000
     64 H16         -2.4690    -4.6690     5.3380 ha         1 KT3       0.096000
     65 H13         -1.3380    -1.7510     9.2120 ha         1 KT3       0.169000
     66 H12         -1.1280    -4.1750     9.4180 ha         1 KT3       0.096000
     67 H10         -2.0820    -6.5780     6.6090 hc         1 KT3       0.066700
     68 HA2          0.7020    -8.3490     7.1450 ho         1 KT3       0.440000
     69 HA1          1.3980    -6.2450     8.6630 ho         1 KT3       0.440000
     70 H11         -2.4680    -7.7780     8.7140 hc         1 KT3       0.038200
     71 H12A        -2.1510    -6.3250     9.6460 hc         1 KT3       0.038200
     72 H21         -4.1370    -5.2080     8.5950 hc         1 KT3       0.056700
     73 H22         -4.4230    -6.6360     7.6060 hc         1 KT3       0.056700
     74 H31         -4.5020    -6.5630    10.6710 hc         1 KT3       0.035700
     75 H32         -4.7860    -7.9880     9.7090 hc         1 KT3       0.035700
     76 HN81        -7.6370    -8.8030     7.5390 hn         1 KT3       0.478000
     77 HN82        -5.9910    -8.6250     8.0520 hn         1 KT3       0.478000
     78 HO1         -6.6920    -3.7710    11.1720 ho         1 KT3       0.493000
     79 HN21       -10.7960    -5.9070     8.5030 hn         1 KT3       0.481500
     80 HN22       -10.5000    -4.4930     9.4580 hn         1 KT3       0.481500
     81 HG13        -6.8500     8.3730     7.3420 hc         1 KT3       0.025200
     82 HG23        -5.9270     6.7940     7.4930 hc         1 KT3       0.025200
     83 HA3         -5.3780     7.9470     3.8930 h1         1 KT3       0.024700
     84 H3          -5.9610     5.6680     5.5850 hn         1 KT3       0.317500
     85 HG12        -7.5210     3.6400     3.2870 hc         1 KT3       0.024200
     86 HG22        -6.7380     3.7310     4.8890 hc         1 KT3       0.024200
     87 HB12        -5.2820     3.4300     2.2130 hc         1 KT3       0.020200
     88 HB22        -5.7020     2.0780     3.2520 hc         1 KT3       0.020200
     89 HA2A        -3.9130     4.3830     4.1870 h1         1 KT3       0.097700
     90 HB13        -5.0140     9.2310     5.9150 hc         1 KT3       0.038700
     91 CG3         -5.8710     7.8830     7.3850 c3         1 KT3      -0.195400
     92 HB23        -4.2000     7.6790     6.0100 hc         1 KT3       0.038700
@<TRIPOS>BOND
     1     1     2 1   
     2     1    52 1   
     3     1    56 1   
     4     2     3 2   
     5     2     4 1   
     6     4     5 1   
     7     4    57 1   
     8     4    58 1   
     9     5     6 1   
    10     5    59 1   
    11     5    60 1   
    12     6     7 1   
    13     6    10 1   
    14     6    61 1   
    15     7     8 1   
    16     7     9 1   
    17    10    11 1   
    18    10    62 1   
    19    11    12 2   
    20    11    13 1   
    21    13    14 ar  
    22    13    16 ar  
    23    14    15 ar  
    24    14    63 1   
    25    15    18 ar  
    26    15    64 1   
    27    16    17 ar  
    28    16    65 1   
    29    17    18 ar  
    30    17    66 1   
    31    18    19 1   
    32    19    20 1   
    33    19    27 1   
    34    19    67 1   
    35    20    21 1   
    36    20    25 1   
    37    20    26 1   
    38    21    22 1   
    39    21    23 1   
    40    21    24 1   
    41    25    68 1   
    42    26    69 1   
    43    27    28 1   
    44    27    70 1   
    45    27    71 1   
    46    28    29 1   
    47    28    72 1   
    48    28    73 1   
    49    29    30 1   
    50    29    74 1   
    51    29    75 1   
    52    30    31 ar  
    53    30    33 ar  
    54    31    32 1   
    55    31    38 ar  
    56    32    76 1   
    57    32    77 1   
    58    33    34 1   
    59    33    35 ar  
    60    34    78 1   
    61    35    36 ar  
    62    36    37 1   
    63    36    38 ar  
    64    37    79 1   
    65    37    80 1   
    66    39    41 1   
    67    40    41 1   
    68    41    91 1   
    69    42    43 1   
    70    42    90 1   
    71    42    91 1   
    72    42    92 1   
    73    43    44 1   
    74    43    47 1   
    75    43    83 1   
    76    44    45 1   
    77    44    46 1   
    78    47    49 1   
    79    47    84 1   
    80    48    49 2   
    81    49    50 1   
    82    50    51 1   
    83    50    85 1   
    84    50    86 1   
    85    51    52 1   
    86    51    87 1   
    87    51    88 1   
    88    52    53 1   
    89    52    89 1   
    90    53    54 1   
    91    53    55 1   
    92    81    91 1   
    93    82    91 1   
@<TRIPOS>SUBSTRUCTURE
     1 KT3         1 TEMP              0 ****  ****    0 ROOT
