@<TRIPOS>MOLECULE
KT4
   39    41     1     0     0
SMALL
No Charge or Current Charge


@<TRIPOS>ATOM
      1 C02         -5.6050    -1.0350     0.1780 c          1 KT4       0.584600
      2 C04         -3.3560    -1.5730     0.1030 c          1 KT4       0.604600
      3 C05         -3.4680    -0.0970     0.0390 ca         1 KT4      -0.278600
      4 C06         -2.4740     0.8740    -0.0500 ca         1 KT4       0.419000
      5 C08          0.0350     1.3580     0.1080 c3         1 KT4       0.226800
      6 C09          1.3280     0.5250     0.0440 c3         1 KT4      -0.093400
      7 C10          2.6000     1.3750     0.2530 c3         1 KT4      -0.006100
      8 C11          3.8740     0.5320     0.1920 ca         1 KT4      -0.152300
      9 C12          4.4190     0.0230     1.3880 ca         1 KT4      -0.031000
     10 C13          5.5860    -0.7580     1.3590 ca         1 KT4      -0.242000
     11 C14          6.2130    -1.0360     0.1380 ca         1 KT4       0.182100
     12 C16          5.6800    -0.5380    -1.0560 ca         1 KT4      -0.246000
     13 C17          4.5140     0.2420    -1.0340 ca         1 KT4       0.181100
     14 C19         -2.8820     2.2240    -0.0950 ca         1 KT4      -0.190000
     15 C20         -4.2560     2.5710    -0.0490 ca         1 KT4      -0.045000
     16 C21         -5.2450     1.5680     0.0420 ca         1 KT4      -0.112000
     17 C22         -4.8200     0.2340     0.0850 ca         1 KT4      -0.087600
     18 N03         -4.6460    -2.0030     0.1800 ns         1 KT4      -0.487500
     19 N07         -1.1380     0.4980    -0.0930 nu         1 KT4      -0.962200
     20 O01         -6.8150    -1.1900     0.2400 o          1 KT4      -0.494000
     21 O15          7.3430    -1.7910     0.1060 oh         1 KT4      -0.531100
     22 O18          4.0120     0.7120    -2.2120 oh         1 KT4      -0.533100
     23 O23         -2.3490    -2.2620     0.0910 o          1 KT4      -0.529000
     24 H1          -0.0290     1.8530     1.0870 h1         1 KT4       0.041200
     25 H2           0.0670     2.1370    -0.6670 h1         1 KT4       0.041200
     26 H3           1.2940    -0.2590     0.8100 hc         1 KT4       0.056700
     27 H4           1.3880     0.0250    -0.9300 hc         1 KT4       0.056700
     28 H5           2.6300     2.1740    -0.4990 hc         1 KT4       0.047700
     29 H6           2.5320     1.8830     1.2230 hc         1 KT4       0.047700
     30 H7           3.9360     0.2320     2.3410 ha         1 KT4       0.113000
     31 H8           5.9950    -1.1430     2.2900 ha         1 KT4       0.118000
     32 H9           6.1770    -0.7640    -1.9960 ha         1 KT4       0.130000
     33 H10         -2.1410     3.0140    -0.1680 ha         1 KT4       0.119000
     34 H11         -4.5510     3.6170    -0.0860 ha         1 KT4       0.116000
     35 H12         -6.3020     1.8240     0.0780 ha         1 KT4       0.138000
     36 H13         -4.8780    -2.9830     0.2370 hn         1 KT4       0.344500
     37 H14         -0.9880    -0.5140    -0.0510 hn         1 KT4       0.518000
     38 H15          7.5640    -2.0470     1.0270 ho         1 KT4       0.468000
     39 H16          4.5950     0.4050    -2.9380 ho         1 KT4       0.468000
@<TRIPOS>BOND
     1     1    17 1   
     2     1    18 1   
     3     1    20 2   
     4     2     3 1   
     5     2    18 1   
     6     2    23 2   
     7     3     4 ar  
     8     3    17 ar  
     9     4    14 ar  
    10     4    19 1   
    11     5     6 1   
    12     5    19 1   
    13     5    24 1   
    14     5    25 1   
    15     6     7 1   
    16     6    26 1   
    17     6    27 1   
    18     7     8 1   
    19     7    28 1   
    20     7    29 1   
    21     8     9 ar  
    22     8    13 ar  
    23     9    10 ar  
    24     9    30 1   
    25    10    11 ar  
    26    10    31 1   
    27    11    12 ar  
    28    11    21 1   
    29    12    13 ar  
    30    12    32 1   
    31    13    22 1   
    32    14    15 ar  
    33    14    33 1   
    34    15    16 ar  
    35    15    34 1   
    36    16    17 ar  
    37    16    35 1   
    38    18    36 1   
    39    19    37 1   
    40    21    38 1   
    41    22    39 1   
@<TRIPOS>SUBSTRUCTURE
     1 KT4         1 TEMP              0 ****  ****    0 ROOT
