@<TRIPOS>MOLECULE
KT4
   39    41     1     0     0
SMALL
bcc


@<TRIPOS>ATOM
      1 C02         -5.6700    -0.8900    -0.0720 c          1 KT4       0.727100
      2 C04         -3.4830    -1.6000     0.0500 c          1 KT4       0.747100
      3 C05         -3.4740    -0.1350     0.0380 ca         1 KT4      -0.278600
      4 C06         -2.3930     0.7550     0.0870 ca         1 KT4       0.280600
      5 C08          0.0310     1.2080     0.2320 c3         1 KT4       0.226800
      6 C09          1.3190     0.4040     0.1740 c3         1 KT4      -0.093400
      7 C10          2.5450     1.3120     0.2670 c3         1 KT4      -0.006100
      8 C11          3.8410     0.5550     0.2010 ca         1 KT4      -0.152300
      9 C12          4.5330     0.2100     1.3540 ca         1 KT4      -0.049000
     10 C13          5.7230    -0.5050     1.3320 ca         1 KT4      -0.260000
     11 C14          6.2520    -0.8950     0.1070 ca         1 KT4       0.182100
     12 C16          5.5830    -0.5690    -1.0700 ca         1 KT4      -0.264000
     13 C17          4.3910     0.1450    -1.0200 ca         1 KT4       0.181100
     14 C19         -2.7440     2.1290     0.0650 ca         1 KT4      -0.208000
     15 C20         -4.0590     2.5410    -0.0090 ca         1 KT4      -0.063000
     16 C21         -5.1280     1.6370    -0.0620 ca         1 KT4      -0.130000
     17 C22         -4.7900     0.3080    -0.0350 ca         1 KT4      -0.087600
     18 N03         -4.8180    -1.9720    -0.0180 ns         1 KT4      -0.621500
     19 N07         -1.1160     0.3340     0.1450 nu         1 KT4      -0.768600
     20 O01         -6.8740    -0.9330    -0.1340 o          1 KT4      -0.569500
     21 O15          7.4040    -1.5850    -0.0070 oh         1 KT4      -0.492100
     22 O18          3.7210     0.4700    -2.1430 oh         1 KT4      -0.494100
     23 O23         -2.5490    -2.3690     0.1080 o          1 KT4      -0.604500
     24 H1           0.0040     1.7930     1.1600 h1         1 KT4       0.041200
     25 H2           0.0170     1.9270    -0.5940 h1         1 KT4       0.041200
     26 H3           1.3410    -0.3180     0.9950 hc         1 KT4       0.056700
     27 H4           1.3470    -0.1690    -0.7570 hc         1 KT4       0.056700
     28 H5           2.4990     2.0630    -0.5270 hc         1 KT4       0.047700
     29 H6           2.5070     1.8640     1.2100 hc         1 KT4       0.047700
     30 H7           4.1290     0.5140     2.3130 ha         1 KT4       0.131000
     31 H8           6.2310    -0.7460     2.2590 ha         1 KT4       0.136000
     32 H9           6.0020    -0.8710    -2.0240 ha         1 KT4       0.148000
     33 H10         -1.9690     2.8820     0.1060 ha         1 KT4       0.137000
     34 H11         -4.2620     3.6040    -0.0240 ha         1 KT4       0.134000
     35 H12         -6.1540     1.9740    -0.1190 ha         1 KT4       0.156000
     36 H13         -5.1280    -2.9330    -0.0250 hn         1 KT4       0.344500
     37 H14         -0.9560    -0.6580     0.2070 hn         1 KT4       0.462800
     38 H15          7.7840    -1.7450     0.8640 ho         1 KT4       0.429000
     39 H16          4.2010     0.1700    -2.9220 ho         1 KT4       0.429000
@<TRIPOS>BOND
     1     1    17 1   
     2     1    18 1   
     3     1    20 2   
     4     2     3 1   
     5     2    18 1   
     6     2    23 2   
     7     3     4 ar  
     8     3    17 ar  
     9     4    14 ar  
    10     4    19 1   
    11     5     6 1   
    12     5    19 1   
    13     5    24 1   
    14     5    25 1   
    15     6     7 1   
    16     6    26 1   
    17     6    27 1   
    18     7     8 1   
    19     7    28 1   
    20     7    29 1   
    21     8     9 ar  
    22     8    13 ar  
    23     9    10 ar  
    24     9    30 1   
    25    10    11 ar  
    26    10    31 1   
    27    11    12 ar  
    28    11    21 1   
    29    12    13 ar  
    30    12    32 1   
    31    13    22 1   
    32    14    15 ar  
    33    14    33 1   
    34    15    16 ar  
    35    15    34 1   
    36    16    17 ar  
    37    16    35 1   
    38    18    36 1   
    39    19    37 1   
    40    21    38 1   
    41    22    39 1   
@<TRIPOS>SUBSTRUCTURE
     1 KT4         1 TEMP              0 ****  ****    0 ROOT
