@<TRIPOS>MOLECULE
KT6
   24    24     1     0     0
SMALL
No Charge or Current Charge


@<TRIPOS>ATOM
      1 C10         24.0960     6.8760    57.5540 ca         1 KT6       0.146000
      2 C15         22.5530     8.2740    55.6210 ca         1 KT6      -0.134600
      3 C08         22.5750     6.8440    55.6310 ca         1 KT6      -0.050000
      4 C09         23.3520     6.1730    56.5960 ca         1 KT6      -0.122000
      5 C12         24.0660     8.2790    57.5630 ca         1 KT6       0.103000
      6 C14         23.3000     8.9640    56.6090 ca         1 KT6      -0.040000
      7 C16         21.7800     9.1370    54.6330 c          1 KT6       0.618700
      8 C18         20.6480     9.2530    52.3620 c3         1 KT6       0.059000
      9 C19         19.1980     9.6540    52.7350 c3         1 KT6       0.155600
     10 N17         21.3850     8.5720    53.4430 ns         1 KT6      -0.490900
     11 O20         19.2010    10.7760    53.6280 oh         1 KT6      -0.669000
     12 O21         21.5080    10.3050    54.8780 o          1 KT6      -0.605100
     13 S07         21.6230     5.8040    54.5250 sh         1 KT6      -0.147800
     14 Cl11        25.0470     5.9750    58.7350 cl         1 KT6      -0.158000
     15 Cl13        24.9800     9.2040    58.7560 cl         1 KT6      -0.155000
     16 H1          23.3760     5.0860    56.6110 ha         1 KT6       0.134000
     17 H2          23.3010    10.0510    56.6340 ha         1 KT6       0.150000
     18 H3          20.6080     8.5690    51.5040 h1         1 KT6       0.053200
     19 H4          21.2110    10.1420    52.0460 h1         1 KT6       0.053200
     20 H5          18.6540     9.9100    51.8160 h1         1 KT6       0.043700
     21 H6          18.6930     8.7930    53.1910 h1         1 KT6       0.043700
     22 H7          21.6520     7.6050    53.3040 hn         1 KT6       0.326500
     23 H8          20.0390    10.6910    54.1610 ho         1 KT6       0.477000
     24 H9          21.4430     4.7830    55.3960 hs         1 KT6       0.207800
@<TRIPOS>BOND
     1     1     4 ar  
     2     1     5 ar  
     3     1    14 1   
     4     2     3 ar  
     5     2     6 ar  
     6     2     7 1   
     7     3     4 ar  
     8     3    13 1   
     9     4    16 1   
    10     5     6 ar  
    11     5    15 1   
    12     6    17 1   
    13     7    10 1   
    14     7    12 2   
    15     8     9 1   
    16     8    10 1   
    17     8    18 1   
    18     8    19 1   
    19     9    11 1   
    20     9    20 1   
    21     9    21 1   
    22    10    22 1   
    23    11    23 1   
    24    13    24 1   
@<TRIPOS>SUBSTRUCTURE
     1 KT6         1 TEMP              0 ****  ****    0 ROOT
