@<TRIPOS>MOLECULE
KT6
   24    24     1     0     0
SMALL
bcc


@<TRIPOS>ATOM
      1 C10         24.0970     6.8690    57.4580 ca         1 KT6       0.054400
      2 C15         22.4820     8.2500    55.6730 ca         1 KT6      -0.134600
      3 C08         22.3500     6.8630    55.7960 ca         1 KT6       0.076900
      4 C09         23.1670     6.1840    56.6950 ca         1 KT6      -0.140000
      5 C12         24.2240     8.2480    57.3400 ca         1 KT6       0.011400
      6 C14         23.4030     8.9280    56.4590 ca         1 KT6      -0.058000
      7 C16         21.6140     9.0790    54.7760 c          1 KT6       0.685700
      8 C18         20.8360     9.3980    52.4510 c3         1 KT6       0.059000
      9 C19         19.3320     9.5080    52.6860 c3         1 KT6       0.132400
     10 N17         21.5820     8.7080    53.4950 ns         1 KT6      -0.557900
     11 O20         18.9380    10.6050    53.4690 oh         1 KT6      -0.606800
     12 O21         20.9960    10.0340    55.2350 o          1 KT6      -0.605100
     13 S07         21.1350     5.9980    54.8500 sh         1 KT6      -0.274700
     14 CL11        25.0880     5.9900    58.5520 cl         1 KT6      -0.066400
     15 CL13        25.3750     9.1150    58.2780 cl         1 KT6      -0.063400
     16 H1          23.0820     5.1120    56.8110 ha         1 KT6       0.152000
     17 H2          23.4890    10.0040    56.3760 ha         1 KT6       0.168000
     18 H3          21.0040     8.8190    51.5450 h1         1 KT6       0.053200
     19 H4          21.2560    10.3930    52.2770 h1         1 KT6       0.053200
     20 H5          18.8600     9.6320    51.7090 h1         1 KT6       0.043700
     21 H6          18.9710     8.5520    53.0920 h1         1 KT6       0.043700
     22 H7          22.2290     7.9980    53.1880 hn         1 KT6       0.326500
     23 H8          19.5110    10.6130    54.2500 ho         1 KT6       0.438000
     24 H9          21.2670     4.8190    55.4680 hs         1 KT6       0.207800
@<TRIPOS>BOND
     1     1     4 ar  
     2     1     5 ar  
     3     1    14 1   
     4     2     3 ar  
     5     2     6 ar  
     6     2     7 1   
     7     3     4 ar  
     8     3    13 1   
     9     4    16 1   
    10     5     6 ar  
    11     5    15 1   
    12     6    17 1   
    13     7    10 1   
    14     7    12 2   
    15     8     9 1   
    16     8    10 1   
    17     8    18 1   
    18     8    19 1   
    19     9    11 1   
    20     9    20 1   
    21     9    21 1   
    22    10    22 1   
    23    11    23 1   
    24    13    24 1   
@<TRIPOS>SUBSTRUCTURE
     1 KT6         1 TEMP              0 ****  ****    0 ROOT
