@<TRIPOS>MOLECULE
KT7
   17    18     1     0     0
SMALL
abcg2


@<TRIPOS>ATOM
      1 C10         -1.2810     0.9900    -0.0470 ca         1 KT7      -0.120000
      2 C02          1.2890     1.3240    -0.0080 c          1 KT7       0.587600
      3 C04          1.8190    -0.9220     0.0170 c          1 KT7       0.592600
      4 C05          0.3450    -0.7980    -0.0170 ca         1 KT7      -0.179600
      5 C06         -0.6370    -1.7670    -0.0340 ca         1 KT7      -0.016000
      6 C07         -1.9600    -1.3440    -0.0720 ca         1 KT7      -0.129000
      7 C08         -2.2830     0.0150    -0.0750 ca         1 KT7       0.141100
      8 C11          0.0220     0.5480    -0.0290 ca         1 KT7      -0.117600
      9 N03          2.2970     0.3760     0.0170 ns         1 KT7      -0.488500
     10 O01          1.4390     2.5190    -0.0080 o          1 KT7      -0.484000
     11 O09         -3.5910     0.3590    -0.0530 oh         1 KT7      -0.540100
     12 O12          2.4850    -1.9290     0.0580 o          1 KT7      -0.488000
     13 H1          -1.5260     2.0450    -0.0400 ha         1 KT7       0.141000
     14 H2          -0.3930    -2.8210    -0.0300 ha         1 KT7       0.142000
     15 H3          -2.7610    -2.0710    -0.0960 ha         1 KT7       0.137000
     16 H4           3.2800     0.6100     0.0350 hn         1 KT7       0.348500
     17 H5          -3.7530     1.1160    -0.6280 ho         1 KT7       0.472000
@<TRIPOS>BOND
     1     1     7 ar  
     2     1     8 ar  
     3     1    13 1   
     4     2     8 1   
     5     2     9 1   
     6     2    10 2   
     7     3     4 1   
     8     3     9 1   
     9     3    12 2   
    10     4     5 ar  
    11     4     8 ar  
    12     5     6 ar  
    13     5    14 1   
    14     6     7 ar  
    15     6    15 1   
    16     7    11 1   
    17     9    16 1   
    18    11    17 1   
@<TRIPOS>SUBSTRUCTURE
     1 KT7         1 TEMP              0 ****  ****    0 ROOT
