@<TRIPOS>MOLECULE
KT7
   17    18     1     0     0
SMALL
No Charge or Current Charge


@<TRIPOS>ATOM
      1 C10         -1.3090     0.9730    -0.1310 ca         1 KT7      -0.120000
      2 C02          1.2970     1.3340    -0.0310 c          1 KT7       0.587600
      3 C04          1.8410    -0.9160     0.0540 c          1 KT7       0.592600
      4 C05          0.3560    -0.8040    -0.0120 ca         1 KT7      -0.179600
      5 C06         -0.6280    -1.8010    -0.0260 ca         1 KT7      -0.016000
      6 C07         -1.9770    -1.3900    -0.0950 ca         1 KT7      -0.129000
      7 C08         -2.3160    -0.0170    -0.1470 ca         1 KT7       0.141100
      8 C11          0.0270     0.5470    -0.0630 ca         1 KT7      -0.117600
      9 N03          2.2690     0.3790     0.0360 ns         1 KT7      -0.488500
     10 O01          1.4510     2.5440    -0.0580 o          1 KT7      -0.484000
     11 O09         -3.6310     0.3430    -0.2120 oh         1 KT7      -0.540100
     12 O12          2.5310    -1.9200     0.1110 o          1 KT7      -0.488000
     13 H1          -1.5510     2.0330    -0.1710 ha         1 KT7       0.141000
     14 H2          -0.3620    -2.8560     0.0140 ha         1 KT7       0.142000
     15 H3          -2.7660    -2.1380    -0.1070 ha         1 KT7       0.137000
     16 H4           3.2480     0.6170     0.0710 hn         1 KT7       0.348500
     17 H5          -3.6880     1.3230    -0.2420 ho         1 KT7       0.472000
@<TRIPOS>BOND
     1     1     7 ar  
     2     1     8 ar  
     3     1    13 1   
     4     2     8 1   
     5     2     9 1   
     6     2    10 2   
     7     3     4 1   
     8     3     9 1   
     9     3    12 2   
    10     4     5 ar  
    11     4     8 ar  
    12     5     6 ar  
    13     5    14 1   
    14     6     7 ar  
    15     6    15 1   
    16     7    11 1   
    17     9    16 1   
    18    11    17 1   
@<TRIPOS>SUBSTRUCTURE
     1 KT7         1 TEMP              0 ****  ****    0 ROOT
