@<TRIPOS>MOLECULE
KT9
   39    41     1     0     0
SMALL
No Charge or Current Charge


@<TRIPOS>ATOM
      1 N1           6.0920     1.3580    17.8930 nb         1 KT9      -0.168000
      2 N3          12.8660     4.1770    21.7900 ns         1 KT9      -0.554900
      3 C4           8.7720     0.5750    21.5040 c          1 KT9       0.606100
      4 C5           7.4470    -0.1110    21.1350 c3         1 KT9      -0.099100
      5 C6           7.1220     0.0780    19.6530 ca         1 KT9      -0.187300
      6 C7           6.3740     1.1830    19.2000 ca         1 KT9       0.123400
      7 C8           6.5650     0.4210    17.0430 ca         1 KT9       0.120900
      8 C10         11.7380     1.1440    22.3860 ca         1 KT9      -0.218000
      9 C13         13.9030     4.9340    23.5300 cy         1 KT9      -0.179400
     10 C15         13.9630     0.1690    22.5280 ca         1 KT9      -0.161000
     11 N            9.8520    -0.2930    21.6060 ns         1 KT9      -0.146000
     12 N2           7.2900    -0.6700    17.3700 nb         1 KT9      -0.168000
     13 C1          13.4600    -1.0640    22.0810 ca         1 KT9      -0.013300
     14 C11         13.1130     1.2730    22.6790 ca         1 KT9       0.167100
     15 O1          13.6690     2.4520    23.1340 os         1 KT9      -0.349100
     16 C2          12.0920    -1.1810    21.7810 ca         1 KT9      -0.198000
     17 C9           7.5680    -0.8380    18.6790 ca         1 KT9       0.123400
     18 C12         12.9890     3.7040    23.0880 cy         1 KT9       0.323700
     19 C14         13.5380     5.3060    22.0320 c          1 KT9       0.572000
     20 C           14.3870    -2.2580    21.9150 c3         1 KT9      -0.049800
     21 O            8.8390     1.7890    21.6630 o          1 KT9      -0.580100
     22 O2          13.6330     6.2430    21.2590 o          1 KT9      -0.511000
     23 C3          11.2210    -0.0860    21.9250 ca         1 KT9       0.013000
     24 H2           6.6470     0.3280    21.7430 hc         1 KT9       0.070200
     25 H3           7.5140    -1.1850    21.3510 hc         1 KT9       0.070200
     26 H4           5.9970     1.9370    19.8880 h4         1 KT9       0.027100
     27 H5           6.3390     0.5590    15.9880 h5         1 KT9       0.054100
     28 H6          11.0800     1.9910    22.5240 ha         1 KT9       0.152000
     29 H7          14.9720     4.7530    23.6610 hc         1 KT9       0.093200
     30 H8          13.4860     5.6430    24.2490 hc         1 KT9       0.093200
     31 H9          15.0190     0.2750    22.7600 ha         1 KT9       0.132000
     32 H10          9.6230    -1.2600    21.4140 hn         1 KT9       0.151000
     33 H11         11.7030    -2.1350    21.4300 ha         1 KT9       0.112000
     34 H12          8.1550    -1.7150    18.9470 h4         1 KT9       0.027100
     35 H13         12.0430     3.6090    23.6330 h2         1 KT9       0.071700
     36 H14         14.7850    -2.3030    20.8940 hc         1 KT9       0.047033
     37 H15         15.2380    -2.2040    22.6050 hc         1 KT9       0.047033
     38 H16         13.8630    -3.2000    22.1130 hc         1 KT9       0.047033
     39 H1          12.0060     4.2120    21.2580 hn         1 KT9       0.341500
@<TRIPOS>BOND
     1     1     6 ar  
     2     1     7 ar  
     3     2    18 1   
     4     2    19 1   
     5     2    39 1   
     6     3     4 1   
     7     3    11 1   
     8     3    21 2   
     9     4     5 1   
    10     4    24 1   
    11     4    25 1   
    12     5     6 ar  
    13     5    17 ar  
    14     6    26 1   
    15     7    12 ar  
    16     7    27 1   
    17     8    14 ar  
    18     8    23 ar  
    19     8    28 1   
    20     9    18 1   
    21     9    19 1   
    22     9    29 1   
    23     9    30 1   
    24    10    13 ar  
    25    10    14 ar  
    26    10    31 1   
    27    11    23 1   
    28    11    32 1   
    29    12    17 ar  
    30    13    16 ar  
    31    13    20 1   
    32    14    15 1   
    33    15    18 1   
    34    16    23 ar  
    35    16    33 1   
    36    17    34 1   
    37    18    35 1   
    38    19    22 2   
    39    20    36 1   
    40    20    37 1   
    41    20    38 1   
@<TRIPOS>SUBSTRUCTURE
     1 KT9         1 TEMP              0 ****  ****    0 ROOT
