@<TRIPOS>MOLECULE
KT9
   39    41     1     0     0
SMALL
abcg2


@<TRIPOS>ATOM
      1 N1           5.7700     1.9440    18.6820 nb         1 KT9      -0.168000
      2 N3          12.6180     4.0890    21.4360 ns         1 KT9      -0.554900
      3 C4           9.1460     0.2260    21.0560 c          1 KT9       0.606100
      4 C5           7.8680    -0.5010    20.6330 c3         1 KT9      -0.099100
      5 C6           7.1760     0.1920    19.5000 ca         1 KT9      -0.187300
      6 C7           6.3620     1.3040    19.6920 ca         1 KT9       0.123400
      7 C8           5.9930     1.4600    17.4600 ca         1 KT9       0.120900
      8 C10         11.8700     1.0080    22.1290 ca         1 KT9      -0.218000
      9 C13         13.5850     4.8820    23.1030 cy         1 KT9      -0.179400
     10 C15         14.0150     0.1360    22.8590 ca         1 KT9      -0.161000
     11 N           10.1590    -0.6080    21.4100 ns         1 KT9      -0.146000
     12 N2           6.7410     0.4010    17.1580 nb         1 KT9      -0.168000
     13 C1          13.5860    -1.1670    22.6220 ca         1 KT9      -0.013300
     14 C11         13.1600     1.2060    22.6130 ca         1 KT9       0.167100
     15 O1          13.6790     2.4500    22.8730 os         1 KT9      -0.349100
     16 C2          12.2950    -1.3790    22.1450 ca         1 KT9      -0.198000
     17 C9           7.3270    -0.2230    18.1820 ca         1 KT9       0.123400
     18 C12         12.8330     3.5720    22.7880 cy         1 KT9       0.323700
     19 C14         13.2110     5.2930    21.6720 c          1 KT9       0.572000
     20 C           14.5130    -2.3300    22.8550 c3         1 KT9      -0.049800
     21 O            9.2070     1.4480    21.0920 o          1 KT9      -0.580100
     22 O2          13.3340     6.2890    20.9940 o          1 KT9      -0.511000
     23 C3          11.4430    -0.3020    21.8970 ca         1 KT9       0.013000
     24 H2           7.2200    -0.5180    21.5140 hc         1 KT9       0.070200
     25 H3           8.0830    -1.5360    20.3670 hc         1 KT9       0.070200
     26 H4           6.1790     1.6850    20.6910 h4         1 KT9       0.027100
     27 H5           5.5170     1.9770    16.6340 h5         1 KT9       0.054100
     28 H6          11.1980     1.8230    21.9290 ha         1 KT9       0.152000
     29 H7          14.6510     4.7480    23.2750 hc         1 KT9       0.093200
     30 H8          13.1420     5.5030    23.8800 hc         1 KT9       0.093200
     31 H9          15.0090     0.3330    23.2390 ha         1 KT9       0.132000
     32 H10          9.9730    -1.5940    21.3080 hn         1 KT9       0.151000
     33 H11         11.9460    -2.3880    21.9600 ha         1 KT9       0.112000
     34 H12          7.9390    -1.0890    17.9460 h4         1 KT9       0.027100
     35 H13         11.9130     3.3980    23.3450 h2         1 KT9       0.071700
     36 H14         15.0960    -2.5420    21.9540 hc         1 KT9       0.047033
     37 H15         15.2180    -2.1160    23.6590 hc         1 KT9       0.047033
     38 H16         13.9570    -3.2330    23.1070 hc         1 KT9       0.047033
     39 H1          12.0310     3.7710    20.6760 hn         1 KT9       0.341500
@<TRIPOS>BOND
     1     1     6 ar  
     2     1     7 ar  
     3     2    18 1   
     4     2    19 1   
     5     2    39 1   
     6     3     4 1   
     7     3    11 1   
     8     3    21 2   
     9     4     5 1   
    10     4    24 1   
    11     4    25 1   
    12     5     6 ar  
    13     5    17 ar  
    14     6    26 1   
    15     7    12 ar  
    16     7    27 1   
    17     8    14 ar  
    18     8    23 ar  
    19     8    28 1   
    20     9    18 1   
    21     9    19 1   
    22     9    29 1   
    23     9    30 1   
    24    10    13 ar  
    25    10    14 ar  
    26    10    31 1   
    27    11    23 1   
    28    11    32 1   
    29    12    17 ar  
    30    13    16 ar  
    31    13    20 1   
    32    14    15 1   
    33    15    18 1   
    34    16    23 ar  
    35    16    33 1   
    36    17    34 1   
    37    18    35 1   
    38    19    22 2   
    39    20    36 1   
    40    20    37 1   
    41    20    38 1   
@<TRIPOS>SUBSTRUCTURE
     1 KT9         1 TEMP              0 ****  ****    0 ROOT
