@<TRIPOS>MOLECULE
KTA
   22    22     1     0     0
SMALL
No Charge or Current Charge


@<TRIPOS>ATOM
      1 C8          -2.1080    -3.7050    -4.7470 c          1 KTA       0.715000
      2 O1          -3.3170    -3.5260    -4.7480 o          1 KTA      -0.737500
      3 O2          -1.5910    -4.8120    -4.7270 o          1 KTA      -0.737500
      4 C7          -1.1840    -2.4730    -4.7250 c3         1 KTA      -0.205400
      5 C1          -0.7620    -2.0610    -3.2770 c6         1 KTA      -0.030700
      6 C2          -1.9700    -1.5930    -2.4130 c6         1 KTA      -0.169400
      7 C3          -1.5370    -1.0870    -1.0300 c          1 KTA       0.577100
      8 C4          -0.3780    -0.0800    -1.0190 c6         1 KTA      -0.187400
      9 C5           0.8080    -0.5650    -1.8870 c6         1 KTA      -0.063400
     10 C6           0.3440    -0.9680    -3.3080 c6         1 KTA      -0.083400
     11 O3          -2.0500    -1.4970     0.0040 o          1 KTA      -0.549100
     12 H6C1        -0.0240    -0.0800    -3.8400 hc         1 KTA       0.031200
     13 H6C2         1.2110    -1.3310    -3.8790 hc         1 KTA       0.031200
     14 H5C1         1.5690     0.2240    -1.9530 hc         1 KTA       0.030200
     15 H5C2         1.2910    -1.4240    -1.4010 hc         1 KTA       0.030200
     16 H1          -0.3350    -2.9620    -2.8110 hc         1 KTA       0.066700
     17 H4C1        -0.7480     0.8280    -1.5150 hc         1 KTA       0.047700
     18 H4C2        -0.0780     0.1630     0.0090 hc         1 KTA       0.047700
     19 H2C1        -2.7450    -2.3620    -2.3020 hc         1 KTA       0.075200
     20 H2C2        -2.3910    -0.7240    -2.9350 hc         1 KTA       0.075200
     21 H7C1        -1.6960    -1.6100    -5.1690 hc         1 KTA       0.018700
     22 H7C2        -0.2500    -2.7260    -5.2430 hc         1 KTA       0.018700
@<TRIPOS>BOND
     1     1     2 1   
     2     1     3 1   
     3     1     4 1   
     4     4     5 1   
     5     4    21 1   
     6     4    22 1   
     7     5     6 1   
     8     5    10 1   
     9     5    16 1   
    10     6     7 1   
    11     6    19 1   
    12     6    20 1   
    13     7     8 1   
    14     7    11 2   
    15     8     9 1   
    16     8    17 1   
    17     8    18 1   
    18     9    10 1   
    19     9    14 1   
    20     9    15 1   
    21    10    12 1   
    22    10    13 1   
@<TRIPOS>SUBSTRUCTURE
     1 KTA         1 TEMP              0 ****  ****    0 ROOT
