@<TRIPOS>MOLECULE
KTA
   22    22     1     0     0
SMALL
bcc


@<TRIPOS>ATOM
      1 C8          -2.1770    -3.6410    -4.7380 c          1 KTA       0.925600
      2 O1          -2.9620    -3.6750    -5.7080 o          1 KTA      -0.842800
      3 O2          -2.0630    -4.5120    -3.8520 o          1 KTA      -0.842800
      4 C7          -1.2340    -2.4250    -4.6650 c3         1 KTA      -0.205400
      5 C1          -0.7360    -2.0500    -3.2770 c6         1 KTA      -0.030700
      6 C2          -1.9010    -1.6320    -2.3670 c6         1 KTA      -0.169400
      7 C3          -1.4320    -1.1920    -1.0060 c          1 KTA       0.577100
      8 C4          -0.3490    -0.1450    -1.0200 c6         1 KTA      -0.187400
      9 C5           0.8030    -0.5540    -1.9420 c6         1 KTA      -0.063400
     10 C6           0.3060    -0.9350    -3.3310 c6         1 KTA      -0.083400
     11 O3          -1.8930    -1.6410     0.0220 o          1 KTA      -0.549100
     12 H6C1        -0.1280    -0.0530    -3.8200 hc         1 KTA       0.031200
     13 H6C2         1.1490    -1.2500    -3.9520 hc         1 KTA       0.031200
     14 H5C1         1.5220     0.2660    -2.0040 hc         1 KTA       0.030200
     15 H5C2         1.3360    -1.4010    -1.5000 hc         1 KTA       0.030200
     16 H1          -0.2650    -2.9340    -2.8350 hc         1 KTA       0.066700
     17 H4C1        -0.7950     0.7830    -1.3980 hc         1 KTA       0.047700
     18 H4C2        -0.0010     0.0500    -0.0050 hc         1 KTA       0.047700
     19 H2C1        -2.6280    -2.4380    -2.2650 hc         1 KTA       0.075200
     20 H2C2        -2.4140    -0.7770    -2.8270 hc         1 KTA       0.075200
     21 H7C1        -1.7140    -1.5600    -5.1320 hc         1 KTA       0.018700
     22 H7C2        -0.3650    -2.6550    -5.2960 hc         1 KTA       0.018700
@<TRIPOS>BOND
     1     1     2 1   
     2     1     3 1   
     3     1     4 1   
     4     4     5 1   
     5     4    21 1   
     6     4    22 1   
     7     5     6 1   
     8     5    10 1   
     9     5    16 1   
    10     6     7 1   
    11     6    19 1   
    12     6    20 1   
    13     7     8 1   
    14     7    11 2   
    15     8     9 1   
    16     8    17 1   
    17     8    18 1   
    18     9    10 1   
    19     9    14 1   
    20     9    15 1   
    21    10    12 1   
    22    10    13 1   
@<TRIPOS>SUBSTRUCTURE
     1 KTA         1 TEMP              0 ****  ****    0 ROOT
