@<TRIPOS>MOLECULE
KTC
   54    53     1     0     0
SMALL
abcg2


@<TRIPOS>ATOM
      1 O1         -10.7990    -0.2550    -0.2810 o          1 KTC      -0.743500
      2 C17         -9.7560     0.4200    -0.1410 c          1 KTC       0.717000
      3 O           -9.6920     1.6610    -0.0380 o          1 KTC      -0.743500
      4 C16         -8.4410    -0.3780    -0.0890 c3         1 KTC      -0.203400
      5 C15         -7.1610     0.4410    -0.0410 c3         1 KTC      -0.054400
      6 C14         -5.9060    -0.4230    -0.0140 c3         1 KTC      -0.079400
      7 C13         -4.6170     0.3900     0.0170 c3         1 KTC      -0.075400
      8 C12         -3.3610    -0.4720     0.0320 c3         1 KTC      -0.075400
      9 C11         -2.0730     0.3430     0.0420 c3         1 KTC      -0.077400
     10 C10         -0.8200    -0.5240     0.0550 c3         1 KTC      -0.066400
     11 C9           0.4510     0.3090     0.0500 c3         1 KTC      -0.179400
     12 C8           1.7380    -0.4770     0.0560 c          1 KTC       0.569100
     13 O2           1.7540    -1.6880     0.0550 o          1 KTC      -0.522100
     14 C7           3.0050     0.3430     0.0650 c3         1 KTC      -0.183400
     15 C6           4.2960    -0.4570     0.0270 c3         1 KTC      -0.065400
     16 C5           5.5280     0.4410     0.0270 c3         1 KTC      -0.076400
     17 C4           6.8330    -0.3440    -0.0170 c3         1 KTC      -0.074400
     18 C3           8.0710     0.5450    -0.0210 c3         1 KTC      -0.074400
     19 C2           9.3730    -0.2430    -0.0670 c3         1 KTC      -0.076400
     20 C1          10.6160     0.6380    -0.0700 c3         1 KTC      -0.075400
     21 C           11.9080    -0.1670    -0.1270 c3         1 KTC      -0.088100
     22 H2          -8.4830    -1.0420     0.7840 hc         1 KTC       0.014700
     23 H3          -8.4130    -1.0530    -0.9520 hc         1 KTC       0.014700
     24 H4          -7.1160     1.1100    -0.9060 hc         1 KTC       0.037700
     25 H5          -7.1700     1.0920     0.8390 hc         1 KTC       0.037700
     26 H6          -5.9370    -1.0870     0.8580 hc         1 KTC       0.024700
     27 H7          -5.8960    -1.0810    -0.8910 hc         1 KTC       0.024700
     28 H8          -4.5880     1.0560    -0.8530 hc         1 KTC       0.033700
     29 H9          -4.6200     1.0430     0.8970 hc         1 KTC       0.033700
     30 H10         -3.3810    -1.1310     0.9070 hc         1 KTC       0.034700
     31 H11         -3.3640    -1.1320    -0.8430 hc         1 KTC       0.034700
     32 H12         -2.0530     1.0000    -0.8350 hc         1 KTC       0.033700
     33 H13         -2.0690     1.0040     0.9160 hc         1 KTC       0.033700
     34 H14         -0.8370    -1.1720     0.9360 hc         1 KTC       0.049700
     35 H15         -0.8320    -1.1880    -0.8150 hc         1 KTC       0.049700
     36 H16          0.4710     0.9710    -0.8240 hc         1 KTC       0.057200
     37 H17          0.4700     0.9870     0.9110 hc         1 KTC       0.057200
     38 H18          2.9580     1.0390    -0.7810 hc         1 KTC       0.057700
     39 H19          2.9760     0.9850     0.9540 hc         1 KTC       0.057700
     40 H20          4.3410    -1.1310     0.8870 hc         1 KTC       0.051200
     41 H21          4.3130    -1.0930    -0.8630 hc         1 KTC       0.051200
     42 H22          5.4830     1.1210    -0.8310 hc         1 KTC       0.034700
     43 H23          5.5160     1.0780     0.9180 hc         1 KTC       0.034700
     44 H24          6.8780    -1.0220     0.8430 hc         1 KTC       0.039200
     45 H25          6.8420    -0.9820    -0.9070 hc         1 KTC       0.039200
     46 H26          8.0260     1.2240    -0.8810 hc         1 KTC       0.036200
     47 H27          8.0630     1.1840     0.8690 hc         1 KTC       0.036200
     48 H28          9.4160    -0.9240     0.7910 hc         1 KTC       0.037200
     49 H29          9.3810    -0.8820    -0.9580 hc         1 KTC       0.037200
     50 H30         10.5720     1.3230    -0.9230 hc         1 KTC       0.035700
     51 H31         10.6140     1.2690     0.8240 hc         1 KTC       0.035700
     52 H32         11.9900    -0.8390     0.7300 hc         1 KTC       0.030700
     53 H33         11.9490    -0.7790    -1.0300 hc         1 KTC       0.030700
     54 H34         12.7870     0.4790    -0.1260 hc         1 KTC       0.030700
@<TRIPOS>BOND
     1     1     2 1   
     2     2     3 1   
     3     2     4 1   
     4     4     5 1   
     5     4    22 1   
     6     4    23 1   
     7     5     6 1   
     8     5    24 1   
     9     5    25 1   
    10     6     7 1   
    11     6    26 1   
    12     6    27 1   
    13     7     8 1   
    14     7    28 1   
    15     7    29 1   
    16     8     9 1   
    17     8    30 1   
    18     8    31 1   
    19     9    10 1   
    20     9    32 1   
    21     9    33 1   
    22    10    11 1   
    23    10    34 1   
    24    10    35 1   
    25    11    12 1   
    26    11    36 1   
    27    11    37 1   
    28    12    13 2   
    29    12    14 1   
    30    14    15 1   
    31    14    38 1   
    32    14    39 1   
    33    15    16 1   
    34    15    40 1   
    35    15    41 1   
    36    16    17 1   
    37    16    42 1   
    38    16    43 1   
    39    17    18 1   
    40    17    44 1   
    41    17    45 1   
    42    18    19 1   
    43    18    46 1   
    44    18    47 1   
    45    19    20 1   
    46    19    48 1   
    47    19    49 1   
    48    20    21 1   
    49    20    50 1   
    50    20    51 1   
    51    21    52 1   
    52    21    53 1   
    53    21    54 1   
@<TRIPOS>SUBSTRUCTURE
     1 KTC         1 TEMP              0 ****  ****    0 ROOT
