@<TRIPOS>MOLECULE
KTC
   54    53     1     0     0
SMALL
No Charge or Current Charge


@<TRIPOS>ATOM
      1 O1          -9.6280     1.3850    -1.0660 o          1 KTC      -0.743500
      2 C17         -8.8580     2.0520    -0.3920 c          1 KTC       0.717000
      3 O           -8.8590     3.2740    -0.3760 o          1 KTC      -0.743500
      4 C16         -7.7910     1.3150     0.4380 c3         1 KTC      -0.203400
      5 C15         -6.5100     1.1020    -0.4060 c3         1 KTC      -0.054400
      6 C14         -5.3900     0.3660     0.3620 c3         1 KTC      -0.079400
      7 C13         -4.1140     0.1550    -0.4820 c3         1 KTC      -0.075400
      8 C12         -2.9950    -0.5810     0.2870 c3         1 KTC      -0.075400
      9 C11         -1.7190    -0.7910    -0.5580 c3         1 KTC      -0.077400
     10 C10         -0.6000    -1.5270     0.2120 c3         1 KTC      -0.066400
     11 C9           0.6770    -1.7360    -0.6360 c3         1 KTC      -0.179400
     12 C8           1.7690    -2.4550     0.1680 c          1 KTC       0.569100
     13 O2           1.8100    -3.6770     0.2460 o          1 KTC      -0.522100
     14 C7           2.8080    -1.5700     0.8720 c3         1 KTC      -0.183400
     15 C6           4.0720    -1.3860    -0.0010 c3         1 KTC      -0.065400
     16 C5           5.1370    -0.4890     0.6650 c3         1 KTC      -0.076400
     17 C4           6.4010    -0.3030    -0.2040 c3         1 KTC      -0.074400
     18 C3           7.4660     0.5950     0.4620 c3         1 KTC      -0.074400
     19 C2           8.7290     0.7800    -0.4070 c3         1 KTC      -0.076400
     20 C1           9.7940     1.6780     0.2590 c3         1 KTC      -0.075400
     21 C           11.0550     1.8640    -0.6070 c3         1 KTC      -0.088100
     22 H2          -7.4850     1.9230     1.2980 hc         1 KTC       0.014700
     23 H3          -8.1410     0.3110     0.7090 hc         1 KTC       0.014700
     24 H4          -6.7630     0.5300    -1.3080 hc         1 KTC       0.037700
     25 H5          -6.1340     2.0770    -0.7430 hc         1 KTC       0.037700
     26 H6          -5.1350     0.9380     1.2630 hc         1 KTC       0.024700
     27 H7          -5.7640    -0.6100     0.6970 hc         1 KTC       0.024700
     28 H8          -4.3690    -0.4180    -1.3830 hc         1 KTC       0.033700
     29 H9          -3.7390     1.1300    -0.8170 hc         1 KTC       0.033700
     30 H10         -2.7400    -0.0080     1.1870 hc         1 KTC       0.034700
     31 H11         -3.3700    -1.5560     0.6220 hc         1 KTC       0.034700
     32 H12         -1.9740    -1.3640    -1.4580 hc         1 KTC       0.033700
     33 H13         -1.3450     0.1840    -0.8930 hc         1 KTC       0.033700
     34 H14         -0.3470    -0.9540     1.1130 hc         1 KTC       0.049700
     35 H15         -0.9750    -2.5020     0.5480 hc         1 KTC       0.049700
     36 H16          0.4240    -2.3350    -1.5200 hc         1 KTC       0.057200
     37 H17          1.0380    -0.7450    -0.9350 hc         1 KTC       0.057200
     38 H18          2.3810    -0.5750     1.0440 hc         1 KTC       0.057700
     39 H19          3.0950    -2.0340     1.8230 hc         1 KTC       0.057700
     40 H20          4.5110    -2.3700    -0.2130 hc         1 KTC       0.051200
     41 H21          3.7860    -0.9500    -0.9670 hc         1 KTC       0.051200
     42 H22          4.6990     0.4950     0.8770 hc         1 KTC       0.034700
     43 H23          5.4250    -0.9250     1.6300 hc         1 KTC       0.034700
     44 H24          6.8400    -1.2870    -0.4150 hc         1 KTC       0.039200
     45 H25          6.1130     0.1330    -1.1680 hc         1 KTC       0.039200
     46 H26          7.0270     1.5780     0.6740 hc         1 KTC       0.036200
     47 H27          7.7530     0.1580     1.4270 hc         1 KTC       0.036200
     48 H28          9.1680    -0.2030    -0.6180 hc         1 KTC       0.037200
     49 H29          8.4420     1.2170    -1.3710 hc         1 KTC       0.037200
     50 H30          9.3590     2.6630     0.4700 hc         1 KTC       0.035700
     51 H31         10.0860     1.2440     1.2230 hc         1 KTC       0.035700
     52 H32         11.5340     0.8980    -0.8070 hc         1 KTC       0.030700
     53 H33         10.8010     2.3300    -1.5670 hc         1 KTC       0.030700
     54 H34         11.7800     2.5070    -0.0940 hc         1 KTC       0.030700
@<TRIPOS>BOND
     1     1     2 1   
     2     2     3 1   
     3     2     4 1   
     4     4     5 1   
     5     4    22 1   
     6     4    23 1   
     7     5     6 1   
     8     5    24 1   
     9     5    25 1   
    10     6     7 1   
    11     6    26 1   
    12     6    27 1   
    13     7     8 1   
    14     7    28 1   
    15     7    29 1   
    16     8     9 1   
    17     8    30 1   
    18     8    31 1   
    19     9    10 1   
    20     9    32 1   
    21     9    33 1   
    22    10    11 1   
    23    10    34 1   
    24    10    35 1   
    25    11    12 1   
    26    11    36 1   
    27    11    37 1   
    28    12    13 2   
    29    12    14 1   
    30    14    15 1   
    31    14    38 1   
    32    14    39 1   
    33    15    16 1   
    34    15    40 1   
    35    15    41 1   
    36    16    17 1   
    37    16    42 1   
    38    16    43 1   
    39    17    18 1   
    40    17    44 1   
    41    17    45 1   
    42    18    19 1   
    43    18    46 1   
    44    18    47 1   
    45    19    20 1   
    46    19    48 1   
    47    19    49 1   
    48    20    21 1   
    49    20    50 1   
    50    20    51 1   
    51    21    52 1   
    52    21    53 1   
    53    21    54 1   
@<TRIPOS>SUBSTRUCTURE
     1 KTC         1 TEMP              0 ****  ****    0 ROOT
