@<TRIPOS>MOLECULE
KTD
   34    36     1     0     0
SMALL
No Charge or Current Charge


@<TRIPOS>ATOM
      1 CAJ          3.1680    -0.3770     0.1220 ca         1 KTD      -0.118000
      2 CAV          4.5710    -0.3590     0.1310 ca         1 KTD      -0.160000
      3 SAP          5.6620    -1.7220     0.2160 ss         1 KTD       0.230500
      4 N1           6.9830    -0.6620     0.1650 nc         1 KTD      -0.112500
      5 N2           6.6770     0.6290     0.0890 nd         1 KTD      -0.150400
      6 CAU          5.2970     0.8010     0.0690 ca         1 KTD      -0.019600
      7 CAI          4.6360     2.0360    -0.0060 ca         1 KTD       0.001000
      8 CAH          3.2250     2.0570    -0.0170 ca         1 KTD      -0.179000
      9 CAS          2.4780     0.8570     0.0460 ca         1 KTD       0.030000
     10 N3           1.0610     0.9650     0.0300 ns         1 KTD      -0.159000
     11 CAR          0.0580     0.0110     0.0770 c          1 KTD       0.667100
     12 OAB          0.2310    -1.1970     0.1470 o          1 KTD      -0.621100
     13 N           -1.2000     0.5620     0.0370 ns         1 KTD      -0.521900
     14 CA          -2.4600    -0.2210     0.0730 c3         1 KTD       0.017000
     15 C           -3.7240     0.6750     0.0130 c          1 KTD       0.577700
     16 O           -3.6180     1.8970    -0.0560 o          1 KTD      -0.533100
     17 CAT         -5.0920     0.0200     0.0400 ca         1 KTD      -0.182600
     18 CAF         -6.2570     0.8210    -0.0140 ca         1 KTD      -0.059500
     19 CAD         -7.5330     0.2340     0.0100 ca         1 KTD      -0.123000
     20 CAC         -7.6670    -1.1610     0.0870 ca         1 KTD      -0.075000
     21 CAE         -6.5210    -1.9680     0.1420 ca         1 KTD      -0.123000
     22 CAG         -5.2410    -1.3870     0.1180 ca         1 KTD      -0.059500
     23 H1           2.6480    -1.3290     0.1720 ha         1 KTD       0.167000
     24 H2           5.2030     2.9630    -0.0540 ha         1 KTD       0.137000
     25 H3           2.7100     3.0130    -0.0750 ha         1 KTD       0.116000
     26 H4           0.7280     1.9170    -0.0260 hn         1 KTD       0.152000
     27 H5          -1.2650     1.5730    -0.0210 hn         1 KTD       0.337500
     28 H6          -2.4870    -0.9090    -0.7820 h1         1 KTD       0.076200
     29 H7          -2.5000    -0.8080     0.9990 h1         1 KTD       0.076200
     30 H8          -6.1790     1.9050    -0.0750 ha         1 KTD       0.126000
     31 H9          -8.4210     0.8620    -0.0320 ha         1 KTD       0.121000
     32 H10         -8.6560    -1.6140     0.1060 ha         1 KTD       0.118000
     33 H11         -6.6230    -3.0500     0.2020 ha         1 KTD       0.121000
     34 H12         -4.3760    -2.0460     0.1620 ha         1 KTD       0.126000
@<TRIPOS>BOND
     1     1     2 ar  
     2     1     9 ar  
     3     1    23 1   
     4     2     3 1   
     5     2     6 ar  
     6     3     4 1   
     7     4     5 2   
     8     5     6 1   
     9     6     7 ar  
    10     7     8 ar  
    11     7    24 1   
    12     8     9 ar  
    13     8    25 1   
    14     9    10 1   
    15    10    11 1   
    16    10    26 1   
    17    11    12 2   
    18    11    13 1   
    19    13    14 1   
    20    13    27 1   
    21    14    15 1   
    22    14    28 1   
    23    14    29 1   
    24    15    16 2   
    25    15    17 1   
    26    17    18 ar  
    27    17    22 ar  
    28    18    19 ar  
    29    18    30 1   
    30    19    20 ar  
    31    19    31 1   
    32    20    21 ar  
    33    20    32 1   
    34    21    22 ar  
    35    21    33 1   
    36    22    34 1   
@<TRIPOS>SUBSTRUCTURE
     1 KTD         1 TEMP              0 ****  ****    0 ROOT
