@<TRIPOS>MOLECULE
KTD
   34    36     1     0     0
SMALL
bcc


@<TRIPOS>ATOM
      1 CAJ          2.9770    -0.3970     0.1210 ca         1 KTD      -0.136000
      2 CAV          4.3680    -0.4320     0.1420 ca         1 KTD      -0.033100
      3 SAP          5.4450    -1.7580     0.2290 ss         1 KTD       0.103600
      4 N1           6.8100    -0.7260     0.1900 nc         1 KTD      -0.112500
      5 N2           6.4980     0.4860     0.1190 nd         1 KTD      -0.150400
      6 CAU          5.1520     0.7260     0.0890 ca         1 KTD      -0.019600
      7 CAI          4.5330     1.9780     0.0110 ca         1 KTD      -0.017000
      8 CAH          3.1660     2.0270    -0.0110 ca         1 KTD      -0.197000
      9 CAS          2.3700     0.8530     0.0450 ca         1 KTD       0.122600
     10 N3           1.0040     1.0610     0.0160 ns         1 KTD      -0.485100
     11 CAR         -0.0060     0.1230     0.0510 c          1 KTD       0.801100
     12 OAB          0.1880    -1.0800     0.1260 o          1 KTD      -0.621100
     13 N           -1.2410     0.6640    -0.0050 ns         1 KTD      -0.588900
     14 CA          -2.4130    -0.1590     0.0430 c3         1 KTD       0.017000
     15 C           -3.6570     0.7010    -0.0100 c          1 KTD       0.577700
     16 O           -3.5720     1.9080    -0.0850 o          1 KTD      -0.533100
     17 CAT         -4.9720     0.0160     0.0340 ca         1 KTD      -0.182600
     18 CAF         -6.1340     0.7900    -0.0030 ca         1 KTD      -0.077500
     19 CAD         -7.3790     0.1860     0.0380 ca         1 KTD      -0.141000
     20 CAC         -7.4790    -1.1980     0.1160 ca         1 KTD      -0.093000
     21 CAE         -6.3290    -1.9760     0.1520 ca         1 KTD      -0.141000
     22 CAG         -5.0810    -1.3730     0.1110 ca         1 KTD      -0.077500
     23 H1           2.3980    -1.3040     0.1640 ha         1 KTD       0.185000
     24 H2           5.1240     2.8820    -0.0330 ha         1 KTD       0.155000
     25 H3           2.6730     2.9900    -0.0730 ha         1 KTD       0.134000
     26 H4           0.7250     2.0290    -0.0400 hn         1 KTD       0.318500
     27 H5          -1.3780     1.6620    -0.0570 hn         1 KTD       0.337500
     28 H6          -2.4420    -0.8660    -0.7930 h1         1 KTD       0.076200
     29 H7          -2.4430    -0.7600     0.9580 h1         1 KTD       0.076200
     30 H8          -6.0620     1.8680    -0.0620 ha         1 KTD       0.144000
     31 H9          -8.2720     0.7950     0.0090 ha         1 KTD       0.139000
     32 H10         -8.4520    -1.6700     0.1490 ha         1 KTD       0.136000
     33 H11         -6.4030    -3.0530     0.2110 ha         1 KTD       0.139000
     34 H12         -4.2020    -2.0030     0.1410 ha         1 KTD       0.144000
@<TRIPOS>BOND
     1     1     2 ar  
     2     1     9 ar  
     3     1    23 1   
     4     2     3 1   
     5     2     6 ar  
     6     3     4 1   
     7     4     5 2   
     8     5     6 1   
     9     6     7 ar  
    10     7     8 ar  
    11     7    24 1   
    12     8     9 ar  
    13     8    25 1   
    14     9    10 1   
    15    10    11 1   
    16    10    26 1   
    17    11    12 2   
    18    11    13 1   
    19    13    14 1   
    20    13    27 1   
    21    14    15 1   
    22    14    28 1   
    23    14    29 1   
    24    15    16 2   
    25    15    17 1   
    26    17    18 ar  
    27    17    22 ar  
    28    18    19 ar  
    29    18    30 1   
    30    19    20 ar  
    31    19    31 1   
    32    20    21 ar  
    33    20    32 1   
    34    21    22 ar  
    35    21    33 1   
    36    22    34 1   
@<TRIPOS>SUBSTRUCTURE
     1 KTD         1 TEMP              0 ****  ****    0 ROOT
