@<TRIPOS>MOLECULE
KTE
   39    39     1     0     0
SMALL
No Charge or Current Charge


@<TRIPOS>ATOM
      1 C01        -11.9630   -11.3460    23.2890 c3         1 KTE       0.121600
      2 O01        -13.7380   -10.4160    24.6620 oh         1 KTE      -0.649000
      3 C02        -12.4040   -10.1620    24.1880 c3         1 KTE       0.145300
      4 O02        -12.1040   -12.5860    24.0130 oh         1 KTE      -0.739000
      5 C03        -12.3290    -8.7560    23.5150 c3         1 KTE       0.179300
      6 O03        -12.8380    -7.8000    24.4640 oh         1 KTE      -0.706000
      7 C04        -13.1050    -8.6230    22.1710 c3         1 KTE       0.175600
      8 O04        -12.2790    -9.1250    21.0930 os         1 KTE      -0.490000
      9 C05        -14.1110   -12.5870    19.9170 c3         1 KTE       0.153600
     10 O05        -13.9250   -10.1180    19.7230 os         1 KTE      -0.430000
     11 C06        -12.8340    -9.1600    19.7410 c5         1 KTE       0.372000
     12 C07        -11.7160    -9.8360    18.8650 c5         1 KTE       0.116300
     13 O07        -10.3840    -9.3350    19.0940 oh         1 KTE      -0.699000
     14 C08        -11.9000   -11.3170    19.2970 c5         1 KTE       0.143300
     15 O08        -11.2020   -12.2270    18.4340 oh         1 KTE      -0.707000
     16 C09        -13.4520   -11.3870    19.1820 c5         1 KTE       0.164300
     17 C10        -13.2730    -7.7510    19.1850 c3         1 KTE       0.153600
     18 O09        -14.4440    -7.1900    19.8240 oh         1 KTE      -0.693000
     19 H1         -10.9190   -11.1920    22.9820 h1         1 KTE       0.043200
     20 H2         -12.5810   -11.3660    22.3830 h1         1 KTE       0.043200
     21 H3         -13.7650   -11.3940    24.7830 ho         1 KTE       0.451000
     22 H4         -11.7200   -10.1450    25.0470 h1         1 KTE       0.028700
     23 H5         -11.6840   -13.2950    23.4690 ho         1 KTE       0.508000
     24 H6         -11.2730    -8.5300    23.3120 h1         1 KTE       0.034700
     25 H7         -13.5210    -8.3070    24.9680 ho         1 KTE       0.504000
     26 H8         -13.3240    -7.5600    22.0170 h1         1 KTE       0.062700
     27 H9         -14.0580    -9.1650    22.2300 h1         1 KTE       0.062700
     28 H10        -13.5680   -13.5020    19.6420 h1         1 KTE       0.031200
     29 H11        -13.9990   -12.4490    21.0000 h1         1 KTE       0.031200
     30 H12        -11.9670    -9.7250    17.8000 h1         1 KTE       0.058700
     31 H13        -10.3600    -9.0820    20.0490 ho         1 KTE       0.511000
     32 H14        -11.5820   -11.4690    20.3370 h1         1 KTE       0.058700
     33 H15        -10.2940   -11.8560    18.3230 ho         1 KTE       0.516000
     34 H16        -13.7390   -11.4350    18.1220 h1         1 KTE       0.087700
     35 H17        -12.4240    -7.0630    19.2920 h1         1 KTE       0.026700
     36 H18        -13.4610    -7.8570    18.1080 h1         1 KTE       0.026700
     37 H19        -15.8650   -13.4680    20.1000 ho         1 KTE       0.504000
     38 H20        -14.6650    -6.3570    19.3460 ho         1 KTE       0.504000
     39 O06        -15.5020   -12.7230    19.5650 oh         1 KTE      -0.705000
@<TRIPOS>BOND
     1     1     3 1   
     2     1     4 1   
     3     1    19 1   
     4     1    20 1   
     5     2     3 1   
     6     2    21 1   
     7     3     5 1   
     8     3    22 1   
     9     4    23 1   
    10     5     6 1   
    11     5     7 1   
    12     5    24 1   
    13     6    25 1   
    14     7     8 1   
    15     7    26 1   
    16     7    27 1   
    17     8    11 1   
    18     9    16 1   
    19     9    28 1   
    20     9    29 1   
    21     9    39 1   
    22    10    11 1   
    23    10    16 1   
    24    11    12 1   
    25    11    17 1   
    26    12    13 1   
    27    12    14 1   
    28    12    30 1   
    29    13    31 1   
    30    14    15 1   
    31    14    16 1   
    32    14    32 1   
    33    15    33 1   
    34    16    34 1   
    35    17    18 1   
    36    17    35 1   
    37    17    36 1   
    38    18    38 1   
    39    37    39 1   
@<TRIPOS>SUBSTRUCTURE
     1 KTE         1 TEMP              0 ****  ****    0 ROOT
