@<TRIPOS>MOLECULE
KTE
   39    39     1     0     0
SMALL
abcg2


@<TRIPOS>ATOM
      1 C01        -11.3350   -11.0300    23.3500 c3         1 KTE       0.121600
      2 O01        -13.7230   -11.2430    23.7160 oh         1 KTE      -0.649000
      3 C02        -12.5950   -10.4350    23.9550 c3         1 KTE       0.145300
      4 O02        -11.0760   -12.2390    24.0390 oh         1 KTE      -0.739000
      5 C03        -12.8960    -9.0040    23.5030 c3         1 KTE       0.179300
      6 O03        -13.8700    -8.4140    24.3410 oh         1 KTE      -0.706000
      7 C04        -13.4620    -8.8390    22.0980 c3         1 KTE       0.175600
      8 O04        -12.4980    -9.2770    21.1640 os         1 KTE      -0.490000
      9 C05        -14.3800   -12.1980    20.0710 c3         1 KTE       0.153600
     10 O05        -13.9370    -9.8950    19.4480 os         1 KTE      -0.430000
     11 C06        -12.7790    -9.1880    19.7960 c5         1 KTE       0.372000
     12 C07        -11.6510    -9.9640    19.0850 c5         1 KTE       0.116300
     13 O07        -10.3640    -9.7940    19.5960 oh         1 KTE      -0.699000
     14 C08        -12.1230   -11.4020    19.2500 c5         1 KTE       0.143300
     15 O08        -11.6600   -12.2950    18.2740 oh         1 KTE      -0.707000
     16 C09        -13.6400   -11.2560    19.1490 c5         1 KTE       0.164300
     17 C10        -12.9060    -7.7570    19.2830 c3         1 KTE       0.153600
     18 O09        -14.1370    -7.1890    19.6570 oh         1 KTE      -0.693000
     19 H1         -10.5060   -10.3190    23.4640 h1         1 KTE       0.043200
     20 H2         -11.4710   -11.2070    22.2810 h1         1 KTE       0.043200
     21 H3         -13.4970   -12.1440    23.9690 ho         1 KTE       0.451000
     22 H4         -12.4010   -10.3670    25.0410 h1         1 KTE       0.028700
     23 H5         -10.4840   -12.7730    23.5030 ho         1 KTE       0.508000
     24 H6         -11.9500    -8.4440    23.5560 h1         1 KTE       0.034700
     25 H7         -13.5160    -8.3700    25.2350 ho         1 KTE       0.504000
     26 H8         -13.6930    -7.7790    21.9650 h1         1 KTE       0.062700
     27 H9         -14.3990    -9.3960    22.0000 h1         1 KTE       0.062700
     28 H10        -14.0430   -13.2190    19.8430 h1         1 KTE       0.031200
     29 H11        -14.0940   -11.9890    21.1100 h1         1 KTE       0.031200
     30 H12        -11.6970    -9.7150    18.0150 h1         1 KTE       0.058700
     31 H13        -10.0020    -8.9640    19.2720 ho         1 KTE       0.511000
     32 H14        -11.8480   -11.7530    20.2540 h1         1 KTE       0.058700
     33 H15        -10.7370   -12.4960    18.4610 ho         1 KTE       0.516000
     34 H16        -13.9490   -11.4490    18.1130 h1         1 KTE       0.087700
     35 H17        -12.0530    -7.1840    19.6680 h1         1 KTE       0.026700
     36 H18        -12.8040    -7.7830    18.1900 h1         1 KTE       0.026700
     37 H19        -16.2260   -12.5990    20.5000 ho         1 KTE       0.504000
     38 H20        -14.1050    -6.2500    19.4520 ho         1 KTE       0.504000
     39 O06        -15.7640   -12.0440    19.8660 oh         1 KTE      -0.705000
@<TRIPOS>BOND
     1     1     3 1   
     2     1     4 1   
     3     1    19 1   
     4     1    20 1   
     5     2     3 1   
     6     2    21 1   
     7     3     5 1   
     8     3    22 1   
     9     4    23 1   
    10     5     6 1   
    11     5     7 1   
    12     5    24 1   
    13     6    25 1   
    14     7     8 1   
    15     7    26 1   
    16     7    27 1   
    17     8    11 1   
    18     9    16 1   
    19     9    28 1   
    20     9    29 1   
    21     9    39 1   
    22    10    11 1   
    23    10    16 1   
    24    11    12 1   
    25    11    17 1   
    26    12    13 1   
    27    12    14 1   
    28    12    30 1   
    29    13    31 1   
    30    14    15 1   
    31    14    16 1   
    32    14    32 1   
    33    15    33 1   
    34    16    34 1   
    35    17    18 1   
    36    17    35 1   
    37    17    36 1   
    38    18    38 1   
    39    37    39 1   
@<TRIPOS>SUBSTRUCTURE
     1 KTE         1 TEMP              0 ****  ****    0 ROOT
