@<TRIPOS>MOLECULE
KTF
   56    60     1     0     0
SMALL
bcc


@<TRIPOS>ATOM
      1 N1         -33.0360    -6.8660    19.3430 na         1 KTF      -0.599400
      2 C7         -34.3230    -5.2800    18.1640 cc         1 KTF      -0.342200
      3 C8         -34.2570    -4.3260    19.2350 c          1 KTF       0.636500
      4 N2         -33.3190    -4.0840    21.4510 nc         1 KTF      -0.473800
      5 C9         -32.8890    -6.0090    20.3840 cc         1 KTF       0.183300
      6 O1         -31.6760    -7.4560    23.4190 o          1 KTF      -0.583100
      7 C1         -32.8360    -9.2140    15.7830 ca         1 KTF      -0.126500
      8 C5         -33.8350    -7.5010    17.1550 ca         1 KTF      -0.102800
      9 C6         -33.7480    -6.5110    18.2380 cd         1 KTF       0.251800
     10 N3         -30.5070    -7.7530    21.5180 n          1 KTF      -0.495800
     11 C4         -35.0170    -7.6390    16.4300 ca         1 KTF      -0.098000
     12 C3         -35.0990    -8.5570    15.3960 ca         1 KTF      -0.126500
     13 C2         -34.0150    -9.3610    15.0510 ca         1 KTF      -0.041300
     14 N4         -27.3910    -7.9160    17.9890 n1         1 KTF      -0.356800
     15 N          -33.5090    -4.7990    20.3300 n          1 KTF       0.075300
     16 C          -32.7430    -8.3030    16.8200 ca         1 KTF      -0.098000
     17 O          -34.7540    -3.2210    19.2580 o          1 KTF      -0.536500
     18 C10        -32.2540    -6.0830    21.6080 cd         1 KTF      -0.385900
     19 C11        -32.5910    -4.8550    22.2180 cd         1 KTF       0.376200
     20 C12        -31.4670    -7.1520    22.2520 c          1 KTF       0.724700
     21 C13        -29.6850    -8.8050    22.1160 c5         1 KTF       0.097000
     22 C14        -28.6570    -9.1190    21.0380 c5         1 KTF      -0.087400
     23 C15        -28.5000    -7.7640    20.3380 c5         1 KTF      -0.029600
     24 C16        -29.9440    -7.2520    20.2720 c5         1 KTF       0.115000
     25 C17        -27.8770    -7.8470    19.0290 c1         1 KTF       0.212700
     26 C18        -34.1200   -10.3560    13.9270 c6         1 KTF      -0.024400
     27 C19        -33.9250   -11.7960    14.4160 c6         1 KTF      -0.068400
     28 C20        -34.0720   -12.7920    13.2700 c6         1 KTF      -0.074400
     29 C21        -33.1120   -12.4750    12.1280 c6         1 KTF      -0.075400
     30 C22        -33.2890   -11.0400    11.6440 c6         1 KTF      -0.074400
     31 C23        -33.1410   -10.0430    12.7880 c6         1 KTF      -0.068400
     32 H1         -32.7450    -7.8260    19.4600 hn         1 KTF       0.474800
     33 H2         -34.8430    -4.9810    17.2660 ha         1 KTF       0.177000
     34 H3         -31.9680    -9.8150    15.5390 ha         1 KTF       0.140500
     35 H4         -35.8830    -7.0440    16.6850 ha         1 KTF       0.138500
     36 H5         -36.0300    -8.6550    14.8510 ha         1 KTF       0.140500
     37 H6         -31.8020    -8.2030    17.3460 ha         1 KTF       0.138500
     38 H7         -32.2880    -4.5190    23.1990 h4         1 KTF       0.053100
     39 H8         -30.2860    -9.6750    22.3800 h1         1 KTF       0.063200
     40 H9         -29.2030    -8.4390    23.0260 h1         1 KTF       0.063200
     41 H10        -29.0420    -9.8600    20.3370 hc         1 KTF       0.065200
     42 H11        -27.7210    -9.4890    21.4510 hc         1 KTF       0.065200
     43 H12        -27.8980    -7.0920    20.9560 hc         1 KTF       0.092700
     44 H13        -29.9940    -6.1660    20.2100 h1         1 KTF       0.056200
     45 H14        -30.4420    -7.6730    19.3960 h1         1 KTF       0.056200
     46 H15        -35.1340   -10.2840    13.5150 hc         1 KTF       0.054700
     47 H16        -34.6470   -12.0190    15.2060 hc         1 KTF       0.042450
     48 H17        -32.9300   -11.9000    14.8610 hc         1 KTF       0.042450
     49 H18        -35.1020   -12.7620    12.8980 hc         1 KTF       0.041450
     50 H19        -33.9040   -13.8070    13.6370 hc         1 KTF       0.041450
     51 H20        -33.2640   -13.1740    11.3020 hc         1 KTF       0.040700
     52 H21        -32.0820   -12.6170    12.4720 hc         1 KTF       0.040700
     53 H22        -32.5660   -10.8120    10.8570 hc         1 KTF       0.041450
     54 H23        -34.2830   -10.9270    11.1970 hc         1 KTF       0.041450
     55 H24        -32.1150   -10.0790    13.1710 hc         1 KTF       0.042450
     56 H25        -33.3060    -9.0250    12.4280 hc         1 KTF       0.042450
@<TRIPOS>BOND
     1     1     5 1   
     2     1     9 1   
     3     1    32 1   
     4     2     3 1   
     5     2     9 2   
     6     2    33 1   
     7     3    15 1   
     8     3    17 2   
     9     4    15 1   
    10     4    19 2   
    11     5    15 1   
    12     5    18 2   
    13     6    20 2   
    14     7    13 ar  
    15     7    16 ar  
    16     7    34 1   
    17     8     9 1   
    18     8    11 ar  
    19     8    16 ar  
    20    10    20 1   
    21    10    21 1   
    22    10    24 1   
    23    11    12 ar  
    24    11    35 1   
    25    12    13 ar  
    26    12    36 1   
    27    13    26 1   
    28    14    25 3   
    29    16    37 1   
    30    18    19 1   
    31    18    20 1   
    32    19    38 1   
    33    21    22 1   
    34    21    39 1   
    35    21    40 1   
    36    22    23 1   
    37    22    41 1   
    38    22    42 1   
    39    23    24 1   
    40    23    25 1   
    41    23    43 1   
    42    24    44 1   
    43    24    45 1   
    44    26    27 1   
    45    26    31 1   
    46    26    46 1   
    47    27    28 1   
    48    27    47 1   
    49    27    48 1   
    50    28    29 1   
    51    28    49 1   
    52    28    50 1   
    53    29    30 1   
    54    29    51 1   
    55    29    52 1   
    56    30    31 1   
    57    30    53 1   
    58    30    54 1   
    59    31    55 1   
    60    31    56 1   
@<TRIPOS>SUBSTRUCTURE
     1 KTF         1 TEMP              0 ****  ****    0 ROOT
