@<TRIPOS>MOLECULE
KTF
   56    60     1     0     0
SMALL
No Charge or Current Charge


@<TRIPOS>ATOM
      1 N1         -33.0630    -6.7250    19.6670 na         1 KTF      -0.793000
      2 C7         -34.6300    -5.3440    18.6200 cc         1 KTF      -0.392200
      3 C8         -34.6710    -4.3810    19.7450 c          1 KTF       0.561000
      4 N2         -33.5620    -4.2000    22.0450 nc         1 KTF      -0.473800
      5 C9         -32.9740    -5.7810    20.6610 cc         1 KTF       0.271000
      6 O1         -31.0410    -7.4280    23.2380 o          1 KTF      -0.583100
      7 C1         -33.0070    -9.5030    16.3380 ca         1 KTF      -0.108500
      8 C5         -33.8630    -7.4580    17.4000 ca         1 KTF      -0.102800
      9 C6         -33.8620    -6.5050    18.5400 cd         1 KTF       0.251800
     10 N3         -30.5670    -7.7100    21.0110 n          1 KTF      -0.428800
     11 C4         -34.6890    -7.2640    16.2670 ca         1 KTF      -0.080000
     12 C3         -34.6730    -8.1720    15.1930 ca         1 KTF      -0.108500
     13 C2         -33.8330    -9.2990    15.2180 ca         1 KTF      -0.041300
     14 N4         -27.9990    -7.3620    16.9950 n1         1 KTF      -0.446000
     15 N          -33.7860    -4.7090    20.7740 n          1 KTF       0.126000
     16 C          -33.0220    -8.5980    17.4130 ca         1 KTF      -0.080000
     17 O          -35.4120    -3.4050    19.7680 o          1 KTF      -0.461000
     18 C10        -32.2180    -6.0230    21.7660 cd         1 KTF      -0.320600
     19 C11        -32.6590    -4.9810    22.6380 cd         1 KTF       0.310900
     20 C12        -31.2590    -7.0980    22.0810 c          1 KTF       0.657700
     21 C13        -29.7910    -8.9500    21.2320 c5         1 KTF       0.097000
     22 C14        -29.1510    -9.1580    19.8400 c5         1 KTF      -0.087400
     23 C15        -28.7240    -7.7020    19.5110 c5         1 KTF      -0.029600
     24 C16        -30.0160    -6.9180    19.8720 c5         1 KTF       0.115000
     25 C17        -28.2990    -7.5060    18.1110 c1         1 KTF       0.301900
     26 C18        -33.8230   -10.2810    14.0370 c6         1 KTF      -0.024400
     27 C19        -34.2810   -11.7050    14.4640 c6         1 KTF      -0.068400
     28 C20        -34.2900   -12.6810    13.2610 c6         1 KTF      -0.074400
     29 C21        -32.9050   -12.7340    12.5710 c6         1 KTF      -0.075400
     30 C22        -32.4390   -11.3200    12.1440 c6         1 KTF      -0.074400
     31 C23        -32.4310   -10.3450    13.3480 c6         1 KTF      -0.068400
     32 H1         -32.5230    -7.5810    19.7440 hn         1 KTF       0.530000
     33 H2         -35.3020    -5.0610    17.8250 ha         1 KTF       0.227000
     34 H3         -32.3480   -10.3660    16.3810 ha         1 KTF       0.122500
     35 H4         -35.3560    -6.4120    16.1950 ha         1 KTF       0.120500
     36 H5         -35.3200    -7.9920    14.3380 ha         1 KTF       0.122500
     37 H6         -32.3630    -8.8010    18.2520 ha         1 KTF       0.120500
     38 H7         -32.3500    -4.7730    23.6560 h4         1 KTF       0.053100
     39 H8         -30.4320    -9.7940    21.5210 h1         1 KTF       0.063200
     40 H9         -29.0290    -8.8080    22.0110 h1         1 KTF       0.063200
     41 H10        -29.8810    -9.5470    19.1190 hc         1 KTF       0.065200
     42 H11        -28.3070    -9.8560    19.8680 hc         1 KTF       0.065200
     43 H12        -27.8930    -7.3880    20.1530 hc         1 KTF       0.092700
     44 H13        -29.7990    -5.8780    20.1520 h1         1 KTF       0.056200
     45 H14        -30.6960    -6.9060    19.0120 h1         1 KTF       0.056200
     46 H15        -34.5410    -9.9200    13.2870 hc         1 KTF       0.054700
     47 H16        -35.2850   -11.6550    14.9050 hc         1 KTF       0.042450
     48 H17        -33.6170   -12.0980    15.2460 hc         1 KTF       0.042450
     49 H18        -35.0530   -12.3670    12.5350 hc         1 KTF       0.041450
     50 H19        -34.5760   -13.6860    13.5990 hc         1 KTF       0.041450
     51 H20        -32.9490   -13.3930    11.6940 hc         1 KTF       0.040700
     52 H21        -32.1670   -13.1750    13.2560 hc         1 KTF       0.040700
     53 H22        -31.4340   -11.3760    11.7040 hc         1 KTF       0.041450
     54 H23        -33.1020   -10.9330    11.3580 hc         1 KTF       0.041450
     55 H24        -31.6650   -10.6630    14.0680 hc         1 KTF       0.042450
     56 H25        -32.1390    -9.3420    13.0080 hc         1 KTF       0.042450
@<TRIPOS>BOND
     1     1     5 1   
     2     1     9 1   
     3     1    32 1   
     4     2     3 1   
     5     2     9 2   
     6     2    33 1   
     7     3    15 1   
     8     3    17 2   
     9     4    15 1   
    10     4    19 2   
    11     5    15 1   
    12     5    18 2   
    13     6    20 2   
    14     7    13 ar  
    15     7    16 ar  
    16     7    34 1   
    17     8     9 1   
    18     8    11 ar  
    19     8    16 ar  
    20    10    20 1   
    21    10    21 1   
    22    10    24 1   
    23    11    12 ar  
    24    11    35 1   
    25    12    13 ar  
    26    12    36 1   
    27    13    26 1   
    28    14    25 3   
    29    16    37 1   
    30    18    19 1   
    31    18    20 1   
    32    19    38 1   
    33    21    22 1   
    34    21    39 1   
    35    21    40 1   
    36    22    23 1   
    37    22    41 1   
    38    22    42 1   
    39    23    24 1   
    40    23    25 1   
    41    23    43 1   
    42    24    44 1   
    43    24    45 1   
    44    26    27 1   
    45    26    31 1   
    46    26    46 1   
    47    27    28 1   
    48    27    47 1   
    49    27    48 1   
    50    28    29 1   
    51    28    49 1   
    52    28    50 1   
    53    29    30 1   
    54    29    51 1   
    55    29    52 1   
    56    30    31 1   
    57    30    53 1   
    58    30    54 1   
    59    31    55 1   
    60    31    56 1   
@<TRIPOS>SUBSTRUCTURE
     1 KTF         1 TEMP              0 ****  ****    0 ROOT
