@<TRIPOS>MOLECULE
KTG
   38    40     1     0     0
SMALL
No Charge or Current Charge


@<TRIPOS>ATOM
      1 C10          2.8330     1.5060     0.0980 c3         1 KTG      -0.019100
      2 C11          4.1230     0.7000     0.0150 ca         1 KTG      -0.122300
      3 C12          4.7640     0.5120    -1.2250 ca         1 KTG      -0.066000
      4 C13          5.9520    -0.2360    -1.3000 ca         1 KTG      -0.173500
      5 C14          6.5040    -0.7990    -0.1400 ca         1 KTG       0.141100
      6 C16          5.8690    -0.6180     1.0990 ca         1 KTG      -0.173500
      7 C17          4.6800     0.1300     1.1770 ca         1 KTG      -0.066000
      8 C18         -2.6760     2.1950    -0.1910 ca         1 KTG      -0.191000
      9 C19         -4.0580     2.5010    -0.1280 ca         1 KTG      -0.045000
     10 C20         -5.0160     1.4710    -0.0150 ca         1 KTG      -0.111000
     11 C21         -4.5510     0.1500     0.0310 ca         1 KTG      -0.087600
     12 C02         -5.2970    -1.1400     0.1460 c          1 KTG       0.584600
     13 C04         -3.0340    -1.6130     0.0410 c          1 KTG       0.603600
     14 C05         -3.1900    -0.1410    -0.0310 ca         1 KTG      -0.276600
     15 C06         -2.2270     0.8580    -0.1420 ca         1 KTG       0.418000
     16 C08          0.2670     1.4150    -0.0110 c3         1 KTG       0.227800
     17 C09          1.5840     0.6200    -0.0920 c3         1 KTG      -0.095400
     18 N03         -4.3100    -2.0800     0.1410 ns         1 KTG      -0.486500
     19 N07         -0.8810     0.5210    -0.2020 nu         1 KTG      -0.964200
     20 O15          7.6550    -1.5220    -0.2230 oh         1 KTG      -0.532100
     21 O22         -2.0070    -2.2720     0.0200 o          1 KTG      -0.529000
     22 H1           2.7690     2.0160     1.0680 hc         1 KTG       0.046700
     23 H2           2.8330     2.2960    -0.6630 hc         1 KTG       0.046700
     24 H3           4.3420     0.9430    -2.1300 ha         1 KTG       0.112000
     25 H4           6.4440    -0.3780    -2.2590 ha         1 KTG       0.122000
     26 H5           6.2880    -1.0520     2.0040 ha         1 KTG       0.122000
     27 H6           4.1910     0.2650     2.1400 ha         1 KTG       0.112000
     28 H7          -1.9590     3.0050    -0.2810 ha         1 KTG       0.118000
     29 H8          -4.3840     3.5390    -0.1670 ha         1 KTG       0.116000
     30 H9          -6.0800     1.6950     0.0340 ha         1 KTG       0.139000
     31 H10          0.2000     1.9060     0.9700 h1         1 KTG       0.041200
     32 H11          0.2680     2.1960    -0.7840 h1         1 KTG       0.041200
     33 H12          1.6450     0.1190    -1.0660 hc         1 KTG       0.055700
     34 H13          1.5820    -0.1640     0.6760 hc         1 KTG       0.055700
     35 H14         -4.5120    -3.0660     0.2070 hn         1 KTG       0.344500
     36 H15         -0.7010    -0.4860    -0.1540 hn         1 KTG       0.519000
     37 H16          7.8910    -1.8360     0.6760 ho         1 KTG       0.465000
     38 O01         -6.5000    -1.3310     0.2260 o          1 KTG      -0.493000
@<TRIPOS>BOND
     1     1     2 1   
     2     1    17 1   
     3     1    22 1   
     4     1    23 1   
     5     2     3 ar  
     6     2     7 ar  
     7     3     4 ar  
     8     3    24 1   
     9     4     5 ar  
    10     4    25 1   
    11     5     6 ar  
    12     5    20 1   
    13     6     7 ar  
    14     6    26 1   
    15     7    27 1   
    16     8     9 ar  
    17     8    15 ar  
    18     8    28 1   
    19     9    10 ar  
    20     9    29 1   
    21    10    11 ar  
    22    10    30 1   
    23    11    12 1   
    24    11    14 ar  
    25    12    18 1   
    26    12    38 2   
    27    13    14 1   
    28    13    18 1   
    29    13    21 2   
    30    14    15 ar  
    31    15    19 1   
    32    16    17 1   
    33    16    19 1   
    34    16    31 1   
    35    16    32 1   
    36    17    33 1   
    37    17    34 1   
    38    18    35 1   
    39    19    36 1   
    40    20    37 1   
@<TRIPOS>SUBSTRUCTURE
     1 KTG         1 TEMP              0 ****  ****    0 ROOT
