@<TRIPOS>MOLECULE
KTG
   38    40     1     0     0
SMALL
abcg2


@<TRIPOS>ATOM
      1 C10          2.7710     1.4600     0.0310 c3         1 KTG      -0.019100
      2 C11          4.0840     0.7300    -0.0270 ca         1 KTG      -0.122300
      3 C12          4.6630     0.3810    -1.2450 ca         1 KTG      -0.066000
      4 C13          5.8570    -0.3200    -1.3090 ca         1 KTG      -0.173500
      5 C14          6.5070    -0.6950    -0.1350 ca         1 KTG       0.141100
      6 C16          5.9430    -0.3580     1.0910 ca         1 KTG      -0.173500
      7 C17          4.7460     0.3450     1.1350 ca         1 KTG      -0.066000
      8 C18         -2.5390     2.0970     0.0170 ca         1 KTG      -0.191000
      9 C19         -3.8680     2.4710    -0.0080 ca         1 KTG      -0.045000
     10 C20         -4.9110     1.5360    -0.0410 ca         1 KTG      -0.111000
     11 C21         -4.5320     0.2170    -0.0460 ca         1 KTG      -0.087600
     12 C02         -5.3770    -1.0060    -0.0760 c          1 KTG       0.584600
     13 C04         -3.1680    -1.6520    -0.0340 c          1 KTG       0.603600
     14 C05         -3.2020    -0.1870    -0.0210 ca         1 KTG      -0.276600
     15 C06         -2.1470     0.7340     0.0090 ca         1 KTG       0.418000
     16 C08          0.2620     1.2670     0.0710 c3         1 KTG       0.227800
     17 C09          1.5760     0.5070     0.0060 c3         1 KTG      -0.095400
     18 N03         -4.4930    -2.0620    -0.0680 ns         1 KTG      -0.486500
     19 N07         -0.8570     0.3530     0.0250 nu         1 KTG      -0.964200
     20 O15          7.6700    -1.3710    -0.2440 oh         1 KTG      -0.532100
     21 O22         -2.2100    -2.3940    -0.0190 o          1 KTG      -0.529000
     22 H1           2.7270     2.0690     0.9380 hc         1 KTG       0.046700
     23 H2           2.6940     2.1530    -0.8110 hc         1 KTG       0.046700
     24 H3           4.1760     0.6660    -2.1710 ha         1 KTG       0.112000
     25 H4           6.2910    -0.5720    -2.2690 ha         1 KTG       0.122000
     26 H5           6.4370    -0.6340     2.0160 ha         1 KTG       0.122000
     27 H6           4.3260     0.6000     2.1010 ha         1 KTG       0.112000
     28 H7          -1.7860     2.8720     0.0450 ha         1 KTG       0.118000
     29 H8          -4.1020     3.5280     0.0000 ha         1 KTG       0.116000
     30 H9          -5.9470     1.8420    -0.0610 ha         1 KTG       0.139000
     31 H10          0.2330     1.8670     0.9890 h1         1 KTG       0.041200
     32 H11          0.2080     1.9700    -0.7670 h1         1 KTG       0.041200
     33 H12          1.6070    -0.0960    -0.9070 hc         1 KTG       0.055700
     34 H13          1.6450    -0.1870     0.8490 hc         1 KTG       0.055700
     35 H14         -4.7750    -3.0320    -0.0810 hn         1 KTG       0.344500
     36 H15         -0.6610    -0.6340     0.0580 hn         1 KTG       0.519000
     37 H16          8.0320    -1.5560     0.6290 ho         1 KTG       0.465000
     38 O01         -6.5810    -1.0840    -0.1020 o          1 KTG      -0.493000
@<TRIPOS>BOND
     1     1     2 1   
     2     1    17 1   
     3     1    22 1   
     4     1    23 1   
     5     2     3 ar  
     6     2     7 ar  
     7     3     4 ar  
     8     3    24 1   
     9     4     5 ar  
    10     4    25 1   
    11     5     6 ar  
    12     5    20 1   
    13     6     7 ar  
    14     6    26 1   
    15     7    27 1   
    16     8     9 ar  
    17     8    15 ar  
    18     8    28 1   
    19     9    10 ar  
    20     9    29 1   
    21    10    11 ar  
    22    10    30 1   
    23    11    12 1   
    24    11    14 ar  
    25    12    18 1   
    26    12    38 2   
    27    13    14 1   
    28    13    18 1   
    29    13    21 2   
    30    14    15 ar  
    31    15    19 1   
    32    16    17 1   
    33    16    19 1   
    34    16    31 1   
    35    16    32 1   
    36    17    33 1   
    37    17    34 1   
    38    18    35 1   
    39    19    36 1   
    40    20    37 1   
@<TRIPOS>SUBSTRUCTURE
     1 KTG         1 TEMP              0 ****  ****    0 ROOT
