@<TRIPOS>MOLECULE
KTI
   39    40     1     0     0
SMALL
abcg2


@<TRIPOS>ATOM
      1 C10        -36.0430    15.0250   -24.2820 ce         1 KTI      -0.048100
      2 C13        -36.1590    14.9500   -27.1200 c3         1 KTI      -0.228100
      3 C15        -38.1340    16.5130   -26.8080 ca         1 KTI       0.115000
      4 C17        -39.4930    16.7850   -26.8980 ca         1 KTI      -0.111000
      5 C20        -38.4950    14.3410   -27.7320 ca         1 KTI      -0.073000
      6 C24        -40.4510    13.5340   -24.2480 ca         1 KTI       0.441900
      7 C26        -42.6870    13.7380   -24.6920 ca         1 KTI       0.277900
      8 C02        -38.1440    13.8850   -23.4530 c          1 KTI       0.620300
      9 C03        -37.0650    14.9320   -23.4470 cf         1 KTI      -0.145200
     10 C14        -37.6080    15.2890   -27.2190 ca         1 KTI      -0.080300
     11 C18        -40.3510    15.8220   -27.4020 ca         1 KTI      -0.078000
     12 C19        -39.8510    14.5980   -27.8240 ca         1 KTI      -0.101000
     13 C27        -42.9070    12.3730   -24.5290 ca         1 KTI       0.070100
     14 C29        -45.2300    12.5530   -24.9410 c3         1 KTI       0.146900
     15 C30        -41.8020    11.5780   -24.2240 ca         1 KTI      -0.097000
     16 C31        -40.5570    12.1520   -24.0840 ca         1 KTI      -0.115000
     17 N23        -39.2410    14.2350   -24.1540 ns         1 KTI      -0.306900
     18 N25        -41.4880    14.2900   -24.5450 nb         1 KTI      -0.703000
     19 O01        -38.0160    12.8870   -22.7780 o          1 KTI      -0.543100
     20 O12        -36.7930    12.8740   -25.5740 o          1 KTI      -0.496000
     21 O21        -34.3800    13.5850   -25.7160 o          1 KTI      -0.496000
     22 O28        -44.0940    11.7610   -24.6500 os         1 KTI      -0.331100
     23 S11        -35.7930    13.9270   -25.6770 sy         1 KTI       1.020100
     24 CL22       -34.7880    16.1790   -24.1020 cl         1 KTI      -0.125000
     25 H1         -35.8370    14.3240   -27.9570 h1         1 KTI       0.117200
     26 H2         -35.4970    15.8150   -27.0790 h1         1 KTI       0.117200
     27 H3         -39.8740    17.7440   -26.5730 ha         1 KTI       0.134000
     28 H4         -38.1060    13.3890   -28.0680 ha         1 KTI       0.129000
     29 H5         -43.4890    14.4190   -24.9460 h4         1 KTI       0.021100
     30 H6         -37.1120    15.6190   -22.6070 ha         1 KTI       0.214000
     31 H7         -41.4100    16.0330   -27.4650 ha         1 KTI       0.125000
     32 H8         -40.5170    13.8450   -28.2230 ha         1 KTI       0.126000
     33 H9         -46.0780    11.8740   -24.9830 h1         1 KTI       0.042700
     34 H10        -45.4140    13.3000   -24.1650 h1         1 KTI       0.042700
     35 H11        -45.1380    13.0600   -25.9050 h1         1 KTI       0.042700
     36 H12        -41.9240    10.5080   -24.1060 ha         1 KTI       0.138000
     37 H13        -39.6990    11.5360   -23.8670 ha         1 KTI       0.161000
     38 H14        -39.2630    15.1550   -24.5730 hn         1 KTI       0.169000
     39 CL16       -37.0980    17.7480   -26.1770 cl         1 KTI      -0.195000
@<TRIPOS>BOND
     1     1     9 2   
     2     1    23 1   
     3     1    24 1   
     4     2    10 1   
     5     2    23 1   
     6     2    25 1   
     7     2    26 1   
     8     3     4 ar  
     9     3    10 ar  
    10     3    39 1   
    11     4    11 ar  
    12     4    27 1   
    13     5    10 ar  
    14     5    12 ar  
    15     5    28 1   
    16     6    16 ar  
    17     6    17 1   
    18     6    18 ar  
    19     7    13 ar  
    20     7    18 ar  
    21     7    29 1   
    22     8     9 1   
    23     8    17 1   
    24     8    19 2   
    25     9    30 1   
    26    11    12 ar  
    27    11    31 1   
    28    12    32 1   
    29    13    15 ar  
    30    13    22 1   
    31    14    22 1   
    32    14    33 1   
    33    14    34 1   
    34    14    35 1   
    35    15    16 ar  
    36    15    36 1   
    37    16    37 1   
    38    17    38 1   
    39    20    23 2   
    40    21    23 2   
@<TRIPOS>SUBSTRUCTURE
     1 KTI         1 TEMP              0 ****  ****    0 ROOT
