@<TRIPOS>MOLECULE
KTI
   39    40     1     0     0
SMALL
No Charge or Current Charge


@<TRIPOS>ATOM
      1 C10        -35.9110    15.0670   -24.1530 ce         1 KTI      -0.048100
      2 C13        -36.3470    14.7710   -26.9940 c3         1 KTI      -0.228100
      3 C15        -38.4030    16.2840   -26.5970 ca         1 KTI       0.115000
      4 C17        -39.7870    16.5080   -26.6800 ca         1 KTI      -0.111000
      5 C20        -38.7110    14.0800   -27.5840 ca         1 KTI      -0.073000
      6 C24        -40.1620    13.4310   -24.4030 ca         1 KTI       0.441900
      7 C26        -42.4560    13.7250   -24.2890 ca         1 KTI       0.277900
      8 C02        -38.4040    14.8240   -23.2380 c          1 KTI       0.620300
      9 C03        -36.9920    15.3220   -23.3290 cf         1 KTI      -0.145200
     10 C14        -37.8520    15.0570   -27.0400 ca         1 KTI      -0.080300
     11 C18        -40.6340    15.5240   -27.2170 ca         1 KTI      -0.078000
     12 C19        -40.0940    14.3120   -27.6720 ca         1 KTI      -0.101000
     13 C27        -42.7010    12.4800   -24.9280 ca         1 KTI       0.070100
     14 C29        -45.1510    12.7370   -24.8260 c3         1 KTI       0.146900
     15 C30        -41.5980    11.7040   -25.3210 ca         1 KTI      -0.097000
     16 C31        -40.3070    12.1960   -25.0600 ca         1 KTI      -0.115000
     17 N23        -38.8880    13.9890   -24.2150 ns         1 KTI      -0.306900
     18 N25        -41.2110    14.2000   -24.0370 nb         1 KTI      -0.703000
     19 O01        -39.0900    15.1800   -22.2890 o          1 KTI      -0.543100
     20 O12        -36.7110    12.7460   -25.3250 o          1 KTI      -0.496000
     21 O21        -34.3540    13.5920   -25.7640 o          1 KTI      -0.496000
     22 O28        -43.9710    11.9980   -25.1900 os         1 KTI      -0.331100
     23 S11        -35.7800    13.8620   -25.5290 sy         1 KTI       1.020100
     24 Cl22       -34.4500    16.0130   -23.8080 cl         1 KTI      -0.125000
     25 H1         -36.0660    14.1530   -27.8540 h1         1 KTI       0.117200
     26 H2         -35.7590    15.6930   -27.0430 h1         1 KTI       0.117200
     27 H3         -40.2040    17.4500   -26.3330 ha         1 KTI       0.134000
     28 H4         -38.3060    13.1360   -27.9430 ha         1 KTI       0.129000
     29 H5         -43.2740    14.3700   -23.9710 h4         1 KTI       0.021100
     30 H6         -36.8040    16.0600   -22.5520 ha         1 KTI       0.214000
     31 H7         -41.7060    15.7020   -27.2800 ha         1 KTI       0.125000
     32 H8         -40.7470    13.5490   -28.0910 ha         1 KTI       0.126000
     33 H9         -46.0520    12.1830   -25.1200 h1         1 KTI       0.042700
     34 H10        -45.1910    12.9000   -23.7420 h1         1 KTI       0.042700
     35 H11        -45.1720    13.7120   -25.3300 h1         1 KTI       0.042700
     36 H12        -41.7420    10.7500   -25.8220 ha         1 KTI       0.138000
     37 H13        -39.4280    11.6340   -25.3630 ha         1 KTI       0.161000
     38 H14        -38.2230    13.7140   -24.9210 hn         1 KTI       0.169000
     39 Cl16       -37.3870    17.5670   -25.9410 cl         1 KTI      -0.195000
@<TRIPOS>BOND
     1     1     9 2   
     2     1    23 1   
     3     1    24 1   
     4     2    10 1   
     5     2    23 1   
     6     2    25 1   
     7     2    26 1   
     8     3     4 ar  
     9     3    10 ar  
    10     3    39 1   
    11     4    11 ar  
    12     4    27 1   
    13     5    10 ar  
    14     5    12 ar  
    15     5    28 1   
    16     6    16 ar  
    17     6    17 1   
    18     6    18 ar  
    19     7    13 ar  
    20     7    18 ar  
    21     7    29 1   
    22     8     9 1   
    23     8    17 1   
    24     8    19 2   
    25     9    30 1   
    26    11    12 ar  
    27    11    31 1   
    28    12    32 1   
    29    13    15 ar  
    30    13    22 1   
    31    14    22 1   
    32    14    33 1   
    33    14    34 1   
    34    14    35 1   
    35    15    16 ar  
    36    15    36 1   
    37    16    37 1   
    38    17    38 1   
    39    20    23 2   
    40    21    23 2   
@<TRIPOS>SUBSTRUCTURE
     1 KTI         1 TEMP              0 ****  ****    0 ROOT
