@<TRIPOS>MOLECULE
KTJ
   22    23     1     0     0
SMALL
No Charge or Current Charge


@<TRIPOS>ATOM
      1 CAH          0.8760    -1.1220     0.3480 ca         1 KTJ      -0.073000
      2 CAI          2.2800    -1.2010     0.3400 ca         1 KTJ      -0.174000
      3 CAJ          3.0470    -0.0930    -0.0410 ca         1 KTJ       0.133100
      4 OAM          4.4060    -0.1800    -0.0460 oh         1 KTJ      -0.534100
      5 CAK          2.4100     1.0990    -0.4100 ca         1 KTJ      -0.174000
      6 CAL          1.0060     1.1810    -0.4000 ca         1 KTJ      -0.073000
      7 CAG          0.2120     0.0690    -0.0270 ca         1 KTJ      -0.022000
      8 CAC         -1.2630     0.1690    -0.0230 cc         1 KTJ      -0.182000
      9 CAB         -1.8950     1.3830     0.0180 cd         1 KTJ      -0.137000
     10 NAA         -3.2630     1.0770     0.0980 na         1 KTJ      -0.005200
     11 NAE         -3.5040    -0.2990     0.1230 nd         1 KTJ      -0.579800
     12 CAD         -2.2980    -0.7840     0.0620 cc         1 KTJ       0.472900
     13 NAF         -2.1400    -2.1160     0.0160 nv         1 KTJ      -1.000900
     14 H1           0.3190    -1.9910     0.6820 ha         1 KTJ       0.118000
     15 H2           2.7730    -2.1230     0.6370 ha         1 KTJ       0.119000
     16 H3           4.7720     0.6830    -0.3350 ho         1 KTJ       0.463000
     17 H4           2.9940     1.9670    -0.7080 ha         1 KTJ       0.119000
     18 H5           0.5440     2.1150    -0.7070 ha         1 KTJ       0.118000
     19 H6          -1.5220     2.4010     0.0210 h4         1 KTJ       0.153000
     20 H7          -4.0260     1.7540     0.1420 hn         1 KTJ       0.374000
     21 H8          -1.2900    -2.4630    -0.4110 hn         1 KTJ       0.442000
     22 H9          -2.9790    -2.6650    -0.1370 hn         1 KTJ       0.442000
@<TRIPOS>BOND
     1     1     2 ar  
     2     1     7 ar  
     3     1    14 1   
     4     2     3 ar  
     5     2    15 1   
     6     3     4 1   
     7     3     5 ar  
     8     4    16 1   
     9     5     6 ar  
    10     5    17 1   
    11     6     7 ar  
    12     6    18 1   
    13     7     8 1   
    14     8     9 2   
    15     8    12 1   
    16     9    10 1   
    17     9    19 1   
    18    10    11 1   
    19    10    20 1   
    20    11    12 2   
    21    12    13 1   
    22    13    21 1   
    23    13    22 1   
@<TRIPOS>SUBSTRUCTURE
     1 KTJ         1 TEMP              0 ****  ****    0 ROOT
