@<TRIPOS>MOLECULE
KTJ
   22    23     1     0     0
SMALL
abcg2


@<TRIPOS>ATOM
      1 CAH          0.8740    -1.0140     0.5340 ca         1 KTJ      -0.073000
      2 CAI          2.2540    -1.1230     0.5090 ca         1 KTJ      -0.174000
      3 CAJ          3.0270    -0.1000    -0.0340 ca         1 KTJ       0.133100
      4 OAM          4.3680    -0.2480    -0.0310 oh         1 KTJ      -0.534100
      5 CAK          2.3930     1.0250    -0.5530 ca         1 KTJ      -0.174000
      6 CAL          1.0100     1.1160    -0.5310 ca         1 KTJ      -0.073000
      7 CAG          0.2170     0.1050     0.0150 ca         1 KTJ      -0.022000
      8 CAC         -1.2390     0.2340     0.0610 cc         1 KTJ      -0.182000
      9 CAB         -1.9730     1.3950     0.2100 cd         1 KTJ      -0.137000
     10 NAA         -3.2620     1.0500     0.2050 na         1 KTJ      -0.005200
     11 NAE         -3.4490    -0.2680     0.0520 nd         1 KTJ      -0.579800
     12 CAD         -2.2350    -0.7760    -0.0320 cc         1 KTJ       0.472900
     13 NAF         -2.0320    -2.1400    -0.1520 nv         1 KTJ      -1.000900
     14 H1           0.3020    -1.8150     0.9850 ha         1 KTJ       0.118000
     15 H2           2.7360    -2.0000     0.9220 ha         1 KTJ       0.119000
     16 H3           4.7920     0.5290    -0.4110 ho         1 KTJ       0.463000
     17 H4           2.9740     1.8310    -0.9860 ha         1 KTJ       0.119000
     18 H5           0.5420     1.9930    -0.9610 ha         1 KTJ       0.118000
     19 H6          -1.6580     2.4190     0.3360 h4         1 KTJ       0.153000
     20 H7          -4.0560     1.6580     0.3070 hn         1 KTJ       0.374000
     21 H8          -1.2620    -2.3790    -0.7600 hn         1 KTJ       0.442000
     22 H9          -2.8630    -2.6320    -0.4450 hn         1 KTJ       0.442000
@<TRIPOS>BOND
     1     1     2 ar  
     2     1     7 ar  
     3     1    14 1   
     4     2     3 ar  
     5     2    15 1   
     6     3     4 1   
     7     3     5 ar  
     8     4    16 1   
     9     5     6 ar  
    10     5    17 1   
    11     6     7 ar  
    12     6    18 1   
    13     7     8 1   
    14     8     9 2   
    15     8    12 1   
    16     9    10 1   
    17     9    19 1   
    18    10    11 1   
    19    10    20 1   
    20    11    12 2   
    21    12    13 1   
    22    13    21 1   
    23    13    22 1   
@<TRIPOS>SUBSTRUCTURE
     1 KTJ         1 TEMP              0 ****  ****    0 ROOT
