@<TRIPOS>MOLECULE
KTK
   34    36     1     0     0
SMALL
No Charge or Current Charge


@<TRIPOS>ATOM
      1 CAO          1.0670     1.0720    -0.7280 ca         1 KTK      -0.070000
      2 CAP          1.6180     2.3620    -0.6180 ca         1 KTK      -0.178000
      3 CAQ          2.7180     2.5850     0.2220 ca         1 KTK       0.128100
      4 OAT          3.2570     3.8300     0.3350 oh         1 KTK      -0.537100
      5 CAR          3.2690     1.5200     0.9470 ca         1 KTK      -0.178000
      6 CAS          2.7210     0.2290     0.8360 ca         1 KTK      -0.070000
      7 CAN          1.6050    -0.0120     0.0040 ca         1 KTK      -0.013000
      8 CAJ          1.0410    -1.3690    -0.1450 cc         1 KTK      -0.168000
      9 CAK          1.6520    -2.6320    -0.0300 cc         1 KTK       0.472900
     10 NAM          2.9670    -2.8390     0.1510 nv         1 KTK      -1.003900
     11 NAL          0.8770    -3.6560    -0.2190 nd         1 KTK      -0.574800
     12 NAA         -0.3530    -3.0370    -0.4460 na         1 KTK      -0.005200
     13 CAB         -0.2940    -1.6320    -0.3690 cd         1 KTK      -0.034000
     14 CAC         -1.5110    -0.7860    -0.2910 ca         1 KTK      -0.121000
     15 CAH         -2.5760    -1.0870    -1.1670 ca         1 KTK      -0.028000
     16 CAG         -3.7520    -0.3210    -1.1580 ca         1 KTK      -0.189000
     17 CAF         -3.8920     0.7390    -0.2580 ca         1 KTK       0.195100
     18 OAI         -5.0330     1.4760    -0.2500 oh         1 KTK      -0.527100
     19 CAE         -2.8700     1.0260     0.6520 ca         1 KTK      -0.317000
     20 CAD         -1.6900     0.2660     0.6470 ca         1 KTK       0.217100
     21 OAU         -0.7860     0.5030     1.6370 oh         1 KTK      -0.504100
     22 H1           0.2320     0.9140    -1.4050 ha         1 KTK       0.121000
     23 H2           1.1870     3.1780    -1.1920 ha         1 KTK       0.117500
     24 H3           2.7480     4.4420    -0.2390 ho         1 KTK       0.461000
     25 H4           4.1200     1.6930     1.6010 ha         1 KTK       0.117500
     26 H5           3.1500    -0.5710     1.4310 ha         1 KTK       0.121000
     27 H6           3.5910    -2.0710    -0.0690 hn         1 KTK       0.442500
     28 H7           3.3110    -3.7740    -0.0390 hn         1 KTK       0.442500
     29 H9          -2.4810    -1.8970    -1.8870 ha         1 KTK       0.120000
     30 H10         -4.5550    -0.5500    -1.8540 ha         1 KTK       0.136000
     31 H11         -4.9460     2.1610     0.4450 ho         1 KTK       0.468000
     32 H12         -3.0000     1.8260     1.3760 ha         1 KTK       0.117000
     33 H13         -1.1160     1.2520     2.1730 ho         1 KTK       0.467000
     34 H8          -1.2000    -3.5850    -0.5890 hn         1 KTK       0.372000
@<TRIPOS>BOND
     1     1     2 ar  
     2     1     7 ar  
     3     1    22 1   
     4     2     3 ar  
     5     2    23 1   
     6     3     4 1   
     7     3     5 ar  
     8     4    24 1   
     9     5     6 ar  
    10     5    25 1   
    11     6     7 ar  
    12     6    26 1   
    13     7     8 1   
    14     8     9 1   
    15     8    13 2   
    16     9    10 1   
    17     9    11 2   
    18    10    27 1   
    19    10    28 1   
    20    11    12 1   
    21    12    13 1   
    22    12    34 1   
    23    13    14 1   
    24    14    15 ar  
    25    14    20 ar  
    26    15    16 ar  
    27    15    29 1   
    28    16    17 ar  
    29    16    30 1   
    30    17    18 1   
    31    17    19 ar  
    32    18    31 1   
    33    19    20 ar  
    34    19    32 1   
    35    20    21 1   
    36    21    33 1   
@<TRIPOS>SUBSTRUCTURE
     1 KTK         1 TEMP              0 ****  ****    0 ROOT
