@<TRIPOS>MOLECULE
KTK
   34    36     1     0     0
SMALL
abcg2


@<TRIPOS>ATOM
      1 CAO          1.1150     1.0650    -0.7600 ca         1 KTK      -0.070000
      2 CAP          1.6780     2.3300    -0.7120 ca         1 KTK      -0.178000
      3 CAQ          2.7580     2.5830     0.1290 ca         1 KTK       0.128100
      4 OAT          3.3530     3.7920     0.2110 oh         1 KTK      -0.537100
      5 CAR          3.2570     1.5520     0.9200 ca         1 KTK      -0.178000
      6 CAS          2.6770     0.2960     0.8690 ca         1 KTK      -0.070000
      7 CAN          1.5950     0.0200     0.0300 ca         1 KTK      -0.013000
      8 CAJ          0.9950    -1.3120    -0.0260 cc         1 KTK      -0.168000
      9 CAK          1.6600    -2.5660    -0.0630 cc         1 KTK       0.472900
     10 NAM          3.0220    -2.7880     0.0360 nv         1 KTK      -1.003900
     11 NAL          0.8070    -3.5660    -0.1740 nd         1 KTK      -0.574800
     12 NAA         -0.3990    -2.9840    -0.2070 na         1 KTK      -0.005200
     13 CAB         -0.3480    -1.6450    -0.1190 cd         1 KTK      -0.034000
     14 CAC         -1.5580    -0.8250    -0.1630 ca         1 KTK      -0.121000
     15 CAH         -2.4840    -0.9770    -1.1940 ca         1 KTK      -0.028000
     16 CAG         -3.6360    -0.2160    -1.2710 ca         1 KTK      -0.189000
     17 CAF         -3.8780     0.7410    -0.2870 ca         1 KTK       0.195100
     18 OAI         -4.9970     1.4790    -0.3920 oh         1 KTK      -0.527100
     19 CAE         -2.9780     0.9070     0.7600 ca         1 KTK      -0.317000
     20 CAD         -1.8300     0.1260     0.8300 ca         1 KTK       0.217100
     21 OAU         -0.9600     0.2360     1.8430 oh         1 KTK      -0.504100
     22 H1           0.2870     0.8920    -1.4370 ha         1 KTK       0.121000
     23 H2           1.2780     3.1170    -1.3420 ha         1 KTK       0.117500
     24 H3           2.9300     4.4140    -0.3910 ho         1 KTK       0.461000
     25 H4           4.0970     1.7350     1.5790 ha         1 KTK       0.117500
     26 H5           3.0730    -0.4830     1.5080 ha         1 KTK       0.121000
     27 H6           3.5820    -2.0550    -0.3730 hn         1 KTK       0.442500
     28 H7           3.3020    -3.6840    -0.3340 hn         1 KTK       0.442500
     29 H9          -2.2860    -1.7040    -1.9720 ha         1 KTK       0.120000
     30 H10         -4.3340    -0.3500    -2.0860 ha         1 KTK       0.136000
     31 H11         -5.0590     2.1090     0.3360 ho         1 KTK       0.468000
     32 H12         -3.1790     1.6410     1.5350 ha         1 KTK       0.117000
     33 H13         -1.2360     0.9300     2.4530 ho         1 KTK       0.467000
     34 H8          -1.2270    -3.5550    -0.2340 hn         1 KTK       0.372000
@<TRIPOS>BOND
     1     1     2 ar  
     2     1     7 ar  
     3     1    22 1   
     4     2     3 ar  
     5     2    23 1   
     6     3     4 1   
     7     3     5 ar  
     8     4    24 1   
     9     5     6 ar  
    10     5    25 1   
    11     6     7 ar  
    12     6    26 1   
    13     7     8 1   
    14     8     9 1   
    15     8    13 2   
    16     9    10 1   
    17     9    11 2   
    18    10    27 1   
    19    10    28 1   
    20    11    12 1   
    21    12    13 1   
    22    12    34 1   
    23    13    14 1   
    24    14    15 ar  
    25    14    20 ar  
    26    15    16 ar  
    27    15    29 1   
    28    16    17 ar  
    29    16    30 1   
    30    17    18 1   
    31    17    19 ar  
    32    18    31 1   
    33    19    20 ar  
    34    19    32 1   
    35    20    21 1   
    36    21    33 1   
@<TRIPOS>SUBSTRUCTURE
     1 KTK         1 TEMP              0 ****  ****    0 ROOT
