@<TRIPOS>MOLECULE
KTM
   32    34     1     0     0
SMALL
abcg2


@<TRIPOS>ATOM
      1 C19          3.1770    -0.4030    -0.1760 ca         1 KTM      -0.101600
      2 C18          3.4700    -1.7350    -0.3350 ca         1 KTM      -0.090000
      3 C17          2.3810    -2.6100    -0.2990 ca         1 KTM      -0.056000
      4 C16          1.0820    -2.1640    -0.1200 ca         1 KTM      -0.168000
      5 C14         -3.2350     0.2220    -0.8110 ca         1 KTM       0.170100
      6 C10         -3.8170    -0.3930     1.4380 ca         1 KTM      -0.059000
      7 C13         -4.4630     0.8640    -0.9420 ca         1 KTM      -0.151000
      8 C02          4.0920     0.7690    -0.1540 c          1 KTM       0.585600
      9 C04          1.9410     1.5290     0.1500 c          1 KTM       0.598600
     10 C05          1.8820     0.0650     0.0040 ca         1 KTM      -0.240600
     11 C06          0.7840    -0.7950     0.0280 ca         1 KTM       0.369000
     12 C08         -1.6110    -1.1770     0.5150 c3         1 KTM       0.251100
     13 C09         -2.9070    -0.4250     0.3880 ca         1 KTM      -0.208300
     14 C11         -5.0430     0.2440     1.3120 ca         1 KTM      -0.151000
     15 C12         -5.3620     0.8670     0.1130 ca         1 KTM      -0.064000
     16 N03          3.2790     1.8650     0.0410 ns         1 KTM      -0.484500
     17 N07         -0.4950    -0.3150     0.1520 nu         1 KTM      -0.955200
     18 O01          5.2910     0.7840    -0.2780 o          1 KTM      -0.486000
     19 O20          1.0350     2.3090     0.3330 o          1 KTM      -0.512000
     20 H1           4.4800    -2.0930    -0.4750 ha         1 KTM       0.141000
     21 H2           2.5490    -3.6730    -0.4100 ha         1 KTM       0.121000
     22 H3           0.2900    -2.8990    -0.0980 ha         1 KTM       0.123000
     23 H4          -3.5570    -0.8840     2.3690 ha         1 KTM       0.109000
     24 H5          -4.7060     1.3600    -1.8740 ha         1 KTM       0.131000
     25 H6          -1.5040    -1.5750     1.5290 h1         1 KTM       0.051200
     26 H7          -1.6250    -2.0350    -0.1620 h1         1 KTM       0.051200
     27 H8          -5.7390     0.2560     2.1400 ha         1 KTM       0.118000
     28 H9          -6.3140     1.3710    -0.0020 ha         1 KTM       0.116000
     29 H10          3.6190     2.8150     0.1020 hn         1 KTM       0.348500
     30 H11         -0.5480     0.6100     0.5570 hn         1 KTM       0.500000
     31 H12         -1.4950     0.0330    -1.5660 ho         1 KTM       0.490000
     32 O15         -2.3970     0.2330    -1.8690 oh         1 KTM      -0.545100
@<TRIPOS>BOND
     1     1     2 ar  
     2     1     8 1   
     3     1    10 ar  
     4     2     3 ar  
     5     2    20 1   
     6     3     4 ar  
     7     3    21 1   
     8     4    11 ar  
     9     4    22 1   
    10     5     7 ar  
    11     5    13 ar  
    12     5    32 1   
    13     6    13 ar  
    14     6    14 ar  
    15     6    23 1   
    16     7    15 ar  
    17     7    24 1   
    18     8    16 1   
    19     8    18 2   
    20     9    10 1   
    21     9    16 1   
    22     9    19 2   
    23    10    11 ar  
    24    11    17 1   
    25    12    13 1   
    26    12    17 1   
    27    12    25 1   
    28    12    26 1   
    29    14    15 ar  
    30    14    27 1   
    31    15    28 1   
    32    16    29 1   
    33    17    30 1   
    34    31    32 1   
@<TRIPOS>SUBSTRUCTURE
     1 KTM         1 TEMP              0 ****  ****    0 ROOT
