@<TRIPOS>MOLECULE
KTM
   32    34     1     0     0
SMALL
No Charge or Current Charge


@<TRIPOS>ATOM
      1 C19          3.2110    -0.4030    -0.1590 ca         1 KTM      -0.101600
      2 C18          3.4780    -1.7310    -0.5180 ca         1 KTM      -0.090000
      3 C17          2.3780    -2.5940    -0.7080 ca         1 KTM      -0.056000
      4 C16          1.0530    -2.1210    -0.5360 ca         1 KTM      -0.168000
      5 C14         -3.3160    -0.0340    -0.8330 ca         1 KTM       0.170100
      6 C10         -3.7720    -0.0770     1.5530 ca         1 KTM      -0.059000
      7 C13         -4.5820     0.5200    -1.0720 ca         1 KTM      -0.151000
      8 C02          4.1390     0.7370     0.1060 c          1 KTM       0.585600
      9 C04          1.9670     1.4890     0.3800 c          1 KTM       0.598600
     10 C05          1.9050     0.0540     0.0080 ca         1 KTM      -0.240600
     11 C06          0.8050    -0.7820    -0.1660 ca         1 KTM       0.369000
     12 C08         -1.5450    -0.9950     0.7420 c3         1 KTM       0.251100
     13 C09         -2.8970    -0.3380     0.4780 ca         1 KTM      -0.208300
     14 C11         -5.0400     0.4820     1.3150 ca         1 KTM      -0.151000
     15 C12         -5.4480     0.7800     0.0030 ca         1 KTM      -0.064000
     16 N03          3.3000     1.7690     0.4050 ns         1 KTM      -0.484500
     17 N07         -0.4850    -0.2910     0.0040 nu         1 KTM      -0.955200
     18 O01          5.3580     0.7620     0.0680 o          1 KTM      -0.486000
     19 O20          1.0460     2.2550     0.6090 o          1 KTM      -0.512000
     20 H1           4.5000    -2.0840    -0.6480 ha         1 KTM       0.141000
     21 H2           2.5490    -3.6300    -0.9930 ha         1 KTM       0.121000
     22 H3           0.2220    -2.8000    -0.6970 ha         1 KTM       0.123000
     23 H4          -3.4740    -0.3130     2.5730 ha         1 KTM       0.109000
     24 H5          -4.8890     0.7540    -2.0880 ha         1 KTM       0.131000
     25 H6          -1.3210    -0.9900     1.8180 h1         1 KTM       0.051200
     26 H7          -1.6060    -2.0440     0.4230 h1         1 KTM       0.051200
     27 H8          -5.7090     0.6810     2.1490 ha         1 KTM       0.118000
     28 H9          -6.4300     1.2110    -0.1780 ha         1 KTM       0.116000
     29 H10          3.6460     2.6890     0.6320 hn         1 KTM       0.348500
     30 H11         -0.4610     0.7150     0.2120 hn         1 KTM       0.500000
     31 H12         -1.5840    -0.3940    -1.4150 ho         1 KTM       0.490000
     32 O15         -2.4630    -0.2560    -1.8650 oh         1 KTM      -0.545100
@<TRIPOS>BOND
     1     1     2 ar  
     2     1     8 1   
     3     1    10 ar  
     4     2     3 ar  
     5     2    20 1   
     6     3     4 ar  
     7     3    21 1   
     8     4    11 ar  
     9     4    22 1   
    10     5     7 ar  
    11     5    13 ar  
    12     5    32 1   
    13     6    13 ar  
    14     6    14 ar  
    15     6    23 1   
    16     7    15 ar  
    17     7    24 1   
    18     8    16 1   
    19     8    18 2   
    20     9    10 1   
    21     9    16 1   
    22     9    19 2   
    23    10    11 ar  
    24    11    17 1   
    25    12    13 1   
    26    12    17 1   
    27    12    25 1   
    28    12    26 1   
    29    14    15 ar  
    30    14    27 1   
    31    15    28 1   
    32    16    29 1   
    33    17    30 1   
    34    31    32 1   
@<TRIPOS>SUBSTRUCTURE
     1 KTM         1 TEMP              0 ****  ****    0 ROOT
