@<TRIPOS>MOLECULE
KTN
   64    68     1     0     0
SMALL
abcg2


@<TRIPOS>ATOM
      1 N1          -2.6230     0.8280     5.0900 na         1 KTN      -0.164500
      2 C1          -3.6640     1.5720     4.6550 cc         1 KTN       0.404400
      3 N2          -4.7500     1.3450     5.3440 nd         1 KTN      -0.676000
      4 C2          -4.4000     0.3960     6.2660 cd         1 KTN       0.223900
      5 C3          -3.0870     0.0570     6.1210 cc         1 KTN      -0.223000
      6 C4          -1.3130     0.7880     4.5000 c3         1 KTN       0.086600
      7 C5          -1.2050    -0.2900     3.4190 c5         1 KTN       0.423300
      8 O1          -2.2290    -0.1330     2.4900 os         1 KTN      -0.421000
      9 C6          -2.5540    -1.4090     1.9740 c5         1 KTN       0.136300
     10 C7          -2.0490    -2.3770     3.0590 c5         1 KTN       0.129600
     11 O2          -1.4230    -1.5340     4.0110 os         1 KTN      -0.458000
     12 C8           0.1730    -0.2320     2.7580 ca         1 KTN      -0.147300
     13 C9           0.5250     0.7260     1.8060 ca         1 KTN       0.153000
     14 C10          1.7720     0.7270     1.1990 ca         1 KTN      -0.108000
     15 C11          2.6970    -0.2370     1.5610 ca         1 KTN       0.136000
     16 C12          2.3970    -1.1840     2.5230 ca         1 KTN      -0.112000
     17 C13          1.1420    -1.1670     3.1080 ca         1 KTN      -0.076000
     18 CL1          4.2490    -0.2420     0.8020 cl         1 KTN      -0.184000
     19 C14         -1.8910    -1.6780     0.6370 c3         1 KTN       0.140600
     20 O3          -2.2800    -0.6590    -0.2510 os         1 KTN      -0.327100
     21 C15         -1.6640    -0.5860    -1.4530 ca         1 KTN       0.117100
     22 C16         -1.9100     0.5600    -2.2110 ca         1 KTN      -0.144500
     23 C17         -1.3520     0.7050    -3.4640 ca         1 KTN      -0.112500
     24 C18         -0.5070    -0.2730    -4.0060 ca         1 KTN       0.240000
     25 C19         -0.2560    -1.4010    -3.2320 ca         1 KTN      -0.112500
     26 C20         -0.8340    -1.5670    -1.9750 ca         1 KTN      -0.144500
     27 N3           0.0160    -0.0930    -5.2980 nh         1 KTN      -0.776400
     28 C21          0.6230    -1.2450    -5.9330 c6         1 KTN       0.169800
     29 C22          0.8170    -0.9810    -7.4170 c6         1 KTN       0.094500
     30 N4           1.5970     0.2230    -7.6230 n          1 KTN      -0.417800
     31 C23          1.0110     1.3800    -6.9770 c6         1 KTN       0.094500
     32 C24          0.8120     1.1100    -5.4950 c6         1 KTN       0.169800
     33 C25          2.7740     0.1990    -8.2870 c          1 KTN       0.609100
     34 O4           3.2220    -0.8300    -8.7770 o          1 KTN      -0.605100
     35 C26          3.5260     1.5040    -8.4130 c3         1 KTN      -0.177100
     36 CL2         -0.5600     1.9880     1.3290 cl         1 KTN      -0.169000
     37 HC1         -3.5630     2.2710     3.8380 h5         1 KTN       0.057100
     38 HC2         -5.1070     0.0110     6.9870 h4         1 KTN       0.035100
     39 HC3         -2.4560    -0.6350     6.6500 h4         1 KTN       0.157000
     40 HC41        -0.5700     0.5920     5.2720 h1         1 KTN       0.081700
     41 HC42        -1.0870     1.7670     4.0790 h1         1 KTN       0.081700
     42 HC6         -3.6390    -1.4520     1.8600 h1         1 KTN       0.102700
     43 HC71        -2.8590    -2.9170     3.5480 h1         1 KTN       0.063700
     44 HC72        -1.3400    -3.1080     2.6560 h1         1 KTN       0.063700
     45 H10          2.0150     1.4740     0.4560 ha         1 KTN       0.148000
     46 H12          3.1250    -1.9290     2.8160 ha         1 KTN       0.137000
     47 H13          0.9160    -1.9140     3.8560 ha         1 KTN       0.135000
     48 H141        -2.2120    -2.6670     0.2830 h1         1 KTN       0.040700
     49 H142        -0.8000    -1.7110     0.7430 h1         1 KTN       0.040700
     50 H16         -2.5580     1.3330    -1.8140 ha         1 KTN       0.121500
     51 H17         -1.5910     1.5920    -4.0390 ha         1 KTN       0.116000
     52 H19          0.4000    -2.1840    -3.5900 ha         1 KTN       0.116000
     53 H20         -0.6110    -2.4710    -1.4250 ha         1 KTN       0.121500
     54 H211        -0.0370    -2.1080    -5.8220 h1         1 KTN       0.044700
     55 H212         1.5930    -1.5080    -5.4820 h1         1 KTN       0.044700
     56 H221        -0.1620    -0.8570    -7.8930 h1         1 KTN       0.061950
     57 H222         1.3130    -1.8270    -7.8840 h1         1 KTN       0.061950
     58 H231         1.6370     2.2590    -7.0990 h1         1 KTN       0.061950
     59 H232         0.0430     1.5970    -7.4400 h1         1 KTN       0.061950
     60 H241         0.3090     1.9680    -5.0520 h1         1 KTN       0.044700
     61 H242         1.7960     1.0170    -5.0100 h1         1 KTN       0.044700
     62 H261         4.4270     1.3360    -8.9970 hc         1 KTN       0.060033
     63 H262         2.9320     2.2730    -8.9100 hc         1 KTN       0.060033
     64 H263         3.8180     1.8970    -7.4390 hc         1 KTN       0.060033
@<TRIPOS>BOND
     1     1     2 1   
     2     1     5 1   
     3     1     6 1   
     4     2     3 2   
     5     2    37 1   
     6     3     4 1   
     7     4     5 2   
     8     4    38 1   
     9     5    39 1   
    10     6     7 1   
    11     6    40 1   
    12     6    41 1   
    13     7     8 1   
    14     7    11 1   
    15     7    12 1   
    16     8     9 1   
    17     9    10 1   
    18     9    19 1   
    19     9    42 1   
    20    10    11 1   
    21    10    43 1   
    22    10    44 1   
    23    12    13 ar  
    24    12    17 ar  
    25    13    14 ar  
    26    13    36 1   
    27    14    15 ar  
    28    14    45 1   
    29    15    16 ar  
    30    15    18 1   
    31    16    17 ar  
    32    16    46 1   
    33    17    47 1   
    34    19    20 1   
    35    19    48 1   
    36    19    49 1   
    37    20    21 1   
    38    21    22 ar  
    39    21    26 ar  
    40    22    23 ar  
    41    22    50 1   
    42    23    24 ar  
    43    23    51 1   
    44    24    25 ar  
    45    24    27 1   
    46    25    26 ar  
    47    25    52 1   
    48    26    53 1   
    49    27    28 1   
    50    27    32 1   
    51    28    29 1   
    52    28    54 1   
    53    28    55 1   
    54    29    30 1   
    55    29    56 1   
    56    29    57 1   
    57    30    31 1   
    58    30    33 1   
    59    31    32 1   
    60    31    58 1   
    61    31    59 1   
    62    32    60 1   
    63    32    61 1   
    64    33    34 2   
    65    33    35 1   
    66    35    62 1   
    67    35    63 1   
    68    35    64 1   
@<TRIPOS>SUBSTRUCTURE
     1 KTN         1 TEMP              0 ****  ****    0 ROOT
