@<TRIPOS>MOLECULE
KTN
   64    68     1     0     0
SMALL
No Charge or Current Charge


@<TRIPOS>ATOM
      1 N1          -2.4500     1.0920     5.0720 na         1 KTN      -0.164500
      2 C1          -3.7880     1.2710     4.7860 cc         1 KTN       0.404400
      3 N2          -4.5060     1.3080     5.9010 nd         1 KTN      -0.676000
      4 C2          -3.6040     1.1400     6.9320 cd         1 KTN       0.223900
      5 C3          -2.3300     1.0070     6.4430 cc         1 KTN      -0.223000
      6 C4          -1.3520     1.0110     4.0860 c3         1 KTN       0.086600
      7 C5          -1.3400    -0.2510     3.1760 c5         1 KTN       0.423300
      8 O1          -2.5920    -0.3800     2.4720 os         1 KTN      -0.421000
      9 C6          -2.7610    -1.7870     2.1490 c5         1 KTN       0.136300
     10 C7          -1.9860    -2.4960     3.3000 c5         1 KTN       0.129600
     11 O2          -1.3470    -1.4180     4.0270 os         1 KTN      -0.458000
     12 C8          -0.1540    -0.2610     2.1820 ca         1 KTN      -0.147300
     13 C9          -0.1020     0.6310     1.0750 ca         1 KTN       0.153000
     14 C10          0.9440     0.5540     0.1410 ca         1 KTN      -0.108000
     15 C11          1.9620    -0.3920     0.2950 ca         1 KTN       0.136000
     16 C12          1.9540    -1.2510     1.4000 ca         1 KTN      -0.112000
     17 C13          0.9110    -1.1840     2.3390 ca         1 KTN      -0.076000
     18 Cl1          3.2530    -0.4920    -0.8940 cl         1 KTN      -0.184000
     19 C14         -2.2100    -2.1510     0.7380 c3         1 KTN       0.140600
     20 O3          -2.5540    -1.1160    -0.2030 os         1 KTN      -0.327100
     21 C15         -1.8740    -0.9540    -1.3930 ca         1 KTN       0.117100
     22 C16         -2.1630     0.1810    -2.1650 ca         1 KTN      -0.144500
     23 C17         -1.4540     0.4360    -3.3520 ca         1 KTN      -0.112500
     24 C18         -0.4450    -0.4440    -3.7900 ca         1 KTN       0.240000
     25 C19         -0.1700    -1.5950    -3.0220 ca         1 KTN      -0.112500
     26 C20         -0.8770    -1.8530    -1.8330 ca         1 KTN      -0.144500
     27 N3           0.2720    -0.1600    -4.9780 nh         1 KTN      -0.776400
     28 C21          0.8690    -1.2600    -5.8010 c6         1 KTN       0.169800
     29 C22          1.0910    -0.8290    -7.2780 c6         1 KTN       0.094500
     30 N4           1.8650     0.4400    -7.3670 n          1 KTN      -0.417800
     31 C23          1.2110     1.5400    -6.6030 c6         1 KTN       0.094500
     32 C24          0.9900     1.1470    -5.1150 c6         1 KTN       0.169800
     33 C25          3.1990     0.4770    -7.8320 c          1 KTN       0.609100
     34 O4           3.7560    -0.5390    -8.2280 o          1 KTN      -0.605100
     35 C26          3.9320     1.8180    -7.8880 c3         1 KTN      -0.177100
     36 Cl2         -1.3250     1.8750     0.7960 cl         1 KTN      -0.169000
     37 HC1         -4.1610     1.3740     3.7730 h5         1 KTN       0.057100
     38 HC2         -3.9210     1.1260     7.9680 h4         1 KTN       0.035100
     39 HC3         -1.3880     0.8610     6.9560 h4         1 KTN       0.157000
     40 HC41        -0.3990     1.0410     4.6260 h1         1 KTN       0.081700
     41 HC42        -1.3930     1.9100     3.4650 h1         1 KTN       0.081700
     42 HC6         -3.8320    -2.0280     2.1750 h1         1 KTN       0.102700
     43 HC71        -2.6560    -3.0430     3.9760 h1         1 KTN       0.063700
     44 HC72        -1.2230    -3.1920     2.9250 h1         1 KTN       0.063700
     45 H10          0.9590     1.2280    -0.7110 ha         1 KTN       0.148000
     46 H12          2.7540    -1.9770     1.5260 ha         1 KTN       0.137000
     47 H13          0.9330    -1.8690     3.1840 ha         1 KTN       0.135000
     48 H141        -2.6150    -3.1200     0.4190 h1         1 KTN       0.040700
     49 H142        -1.1210    -2.2530     0.8120 h1         1 KTN       0.040700
     50 H16         -2.9290     0.8770    -1.8310 ha         1 KTN       0.121500
     51 H17         -1.6910     1.3200    -3.9360 ha         1 KTN       0.116000
     52 H19          0.6060    -2.2880    -3.3320 ha         1 KTN       0.116000
     53 H20         -0.6300    -2.7470    -1.2690 ha         1 KTN       0.121500
     54 H211         0.2130    -2.1420    -5.7930 h1         1 KTN       0.044700
     55 H212         1.8360    -1.5620    -5.3720 h1         1 KTN       0.044700
     56 H221         0.1120    -0.6800    -7.7550 h1         1 KTN       0.061950
     57 H222         1.5920    -1.6400    -7.8220 h1         1 KTN       0.061950
     58 H231         1.7860     2.4730    -6.6450 h1         1 KTN       0.061950
     59 H232         0.2340     1.7510    -7.0600 h1         1 KTN       0.061950
     60 H241         0.4310     1.9540    -4.6220 h1         1 KTN       0.044700
     61 H242         1.9690     1.0810    -4.6170 h1         1 KTN       0.044700
     62 H261         4.9130     1.7400    -8.3710 hc         1 KTN       0.060033
     63 H262         3.2970     2.5610    -8.3820 hc         1 KTN       0.060033
     64 H263         4.0290     2.2140    -6.8710 hc         1 KTN       0.060033
@<TRIPOS>BOND
     1     1     2 1   
     2     1     5 1   
     3     1     6 1   
     4     2     3 2   
     5     2    37 1   
     6     3     4 1   
     7     4     5 2   
     8     4    38 1   
     9     5    39 1   
    10     6     7 1   
    11     6    40 1   
    12     6    41 1   
    13     7     8 1   
    14     7    11 1   
    15     7    12 1   
    16     8     9 1   
    17     9    10 1   
    18     9    19 1   
    19     9    42 1   
    20    10    11 1   
    21    10    43 1   
    22    10    44 1   
    23    12    13 ar  
    24    12    17 ar  
    25    13    14 ar  
    26    13    36 1   
    27    14    15 ar  
    28    14    45 1   
    29    15    16 ar  
    30    15    18 1   
    31    16    17 ar  
    32    16    46 1   
    33    17    47 1   
    34    19    20 1   
    35    19    48 1   
    36    19    49 1   
    37    20    21 1   
    38    21    22 ar  
    39    21    26 ar  
    40    22    23 ar  
    41    22    50 1   
    42    23    24 ar  
    43    23    51 1   
    44    24    25 ar  
    45    24    27 1   
    46    25    26 ar  
    47    25    52 1   
    48    26    53 1   
    49    27    28 1   
    50    27    32 1   
    51    28    29 1   
    52    28    54 1   
    53    28    55 1   
    54    29    30 1   
    55    29    56 1   
    56    29    57 1   
    57    30    31 1   
    58    30    33 1   
    59    31    32 1   
    60    31    58 1   
    61    31    59 1   
    62    32    60 1   
    63    32    61 1   
    64    33    34 2   
    65    33    35 1   
    66    35    62 1   
    67    35    63 1   
    68    35    64 1   
@<TRIPOS>SUBSTRUCTURE
     1 KTN         1 TEMP              0 ****  ****    0 ROOT
