@<TRIPOS>MOLECULE
KTO
   51    54     1     0     0
SMALL
bcc


@<TRIPOS>ATOM
      1 O20         -4.2790     2.5030     0.5540 o          1 KTO      -0.520100
      2 C17         -3.3220     1.7900     0.3340 c          1 KTO       0.583100
      3 C15         -2.4790     1.2080     1.4370 c6         1 KTO      -0.209400
      4 C14         -1.9350    -0.1970     1.1300 c6         1 KTO       0.163500
      5 C11         -2.8410     1.4890    -1.0590 c6         1 KTO      -0.209400
      6 C13         -2.2930     0.0630    -1.2320 c6         1 KTO       0.163500
      7 C12         -3.3840    -1.0060    -1.2380 c6         1 KTO      -0.070900
      8 C16         -4.0560    -1.1600     0.1210 c6         1 KTO      -0.080400
      9 C10         -3.0110    -1.2780     1.2250 c6         1 KTO      -0.070900
     10 N18         -1.3340    -0.3030    -0.1940 n3         1 KTO      -0.466100
     11 O19         -0.2320     0.5670    -0.2830 os         1 KTO      -0.245100
     12 C1           0.9700    -0.1120    -0.5920 c5         1 KTO       0.229100
     13 C23          2.0320     0.9790    -0.8110 c3         1 KTO      -0.094400
     14 C22          2.3640     1.8480     0.4170 c3         1 KTO       0.038500
     15 N21          1.4030     2.8570     0.7990 n8         1 KTO      -0.864800
     16 C24          3.7160     2.4620     0.1740 c          1 KTO       0.573900
     17 O25          3.9510     3.6430     0.1840 o          1 KTO      -0.500100
     18 C2           0.8660    -1.0210    -1.8510 c5         1 KTO       0.368300
     19 O49          1.0530    -0.3100    -3.0270 oh         1 KTO      -0.570800
     20 N3           1.9020    -2.0220    -1.6120 nu         1 KTO      -0.737600
     21 C4           1.9830    -2.2040    -0.2410 ca         1 KTO       0.133600
     22 C5           1.4330    -1.1140     0.4370 ca         1 KTO      -0.169300
     23 C6           2.5280    -3.2750     0.4550 ca         1 KTO      -0.171000
     24 C7           2.5250    -3.2260     1.8450 ca         1 KTO      -0.089000
     25 C8           1.9900    -2.1400     2.5290 ca         1 KTO      -0.168000
     26 C9           1.4440    -1.0720     1.8170 ca         1 KTO      -0.072000
     27 H1          -1.6390     1.8980     1.5770 hc         1 KTO       0.077200
     28 H2          -3.0340     1.2100     2.3760 hc         1 KTO       0.077200
     29 H3          -1.1640    -0.4290     1.8650 h1         1 KTO       0.072200
     30 H4          -3.6300     1.6930    -1.7850 hc         1 KTO       0.077200
     31 H5          -2.0320     2.2000    -1.2650 hc         1 KTO       0.077200
     32 H6          -1.7760     0.0230    -2.1940 h1         1 KTO       0.072200
     33 H7          -4.1190    -0.7680    -2.0110 hc         1 KTO       0.051700
     34 H8          -2.9250    -1.9560    -1.5240 hc         1 KTO       0.051700
     35 H9          -4.7320    -0.3220     0.3140 hc         1 KTO       0.049200
     36 H10         -4.6940    -2.0460     0.1200 hc         1 KTO       0.049200
     37 H11         -2.5180    -2.2520     1.1570 hc         1 KTO       0.051700
     38 H12         -3.4800    -1.2320     2.2100 hc         1 KTO       0.051700
     39 H13          2.9390     0.4690    -1.1500 hc         1 KTO       0.073200
     40 H14          1.7250     1.6360    -1.6290 hc         1 KTO       0.073200
     41 H15          2.5270     1.1760     1.2710 h1         1 KTO       0.083700
     42 H16          1.3010     3.5360     0.0540 hn         1 KTO       0.347300
     43 H17          0.4970     2.4240     0.9030 hn         1 KTO       0.347300
     44 H19          4.5120     1.7230    -0.0310 h4         1 KTO      -0.013800
     45 H22         -0.1160    -1.5110    -1.8480 h2         1 KTO       0.040700
     46 H23          0.5900    -0.7600    -3.7400 ho         1 KTO       0.410000
     47 H24          1.8200    -2.8630    -2.1660 hn         1 KTO       0.395800
     48 H25          2.9420    -4.1280    -0.0670 ha         1 KTO       0.137000
     49 H26          2.9420    -4.0550     2.4020 ha         1 KTO       0.131000
     50 H27          1.9920    -2.1250     3.6100 ha         1 KTO       0.135000
     51 H18          1.0220    -0.2310     2.3530 ha         1 KTO       0.136000
@<TRIPOS>BOND
     1     1     2 2   
     2     2     3 1   
     3     2     5 1   
     4     3     4 1   
     5     3    27 1   
     6     3    28 1   
     7     4     9 1   
     8     4    10 1   
     9     4    29 1   
    10     5     6 1   
    11     5    30 1   
    12     5    31 1   
    13     6     7 1   
    14     6    10 1   
    15     6    32 1   
    16     7     8 1   
    17     7    33 1   
    18     7    34 1   
    19     8     9 1   
    20     8    35 1   
    21     8    36 1   
    22     9    37 1   
    23     9    38 1   
    24    10    11 1   
    25    11    12 1   
    26    12    13 1   
    27    12    18 1   
    28    12    22 1   
    29    13    14 1   
    30    13    39 1   
    31    13    40 1   
    32    14    15 1   
    33    14    16 1   
    34    14    41 1   
    35    15    42 1   
    36    15    43 1   
    37    16    17 2   
    38    16    44 1   
    39    18    19 1   
    40    18    20 1   
    41    18    45 1   
    42    19    46 1   
    43    20    21 1   
    44    20    47 1   
    45    21    22 ar  
    46    21    23 ar  
    47    22    26 ar  
    48    23    24 ar  
    49    23    48 1   
    50    24    25 ar  
    51    24    49 1   
    52    25    26 ar  
    53    25    50 1   
    54    26    51 1   
@<TRIPOS>SUBSTRUCTURE
     1 KTO         1 TEMP              0 ****  ****    0 ROOT
