@<TRIPOS>MOLECULE
KTO
   51    54     1     0     0
SMALL
No Charge or Current Charge


@<TRIPOS>ATOM
      1 O20         -4.4220     2.2690     0.8010 o          1 KTO      -0.520100
      2 C17         -3.3680     1.7270     0.4970 c          1 KTO       0.583100
      3 C15         -2.4330     1.1420     1.5550 c6         1 KTO      -0.209400
      4 C14         -1.8760    -0.2500     1.1590 c6         1 KTO       0.163500
      5 C11         -2.9720     1.5110    -0.9640 c6         1 KTO      -0.209400
      6 C13         -2.3850     0.0990    -1.2240 c6         1 KTO       0.163500
      7 C12         -3.4690    -1.0200    -1.2120 c6         1 KTO      -0.070900
      8 C16         -4.0610    -1.2790     0.2010 c6         1 KTO      -0.080400
      9 C10         -2.9400    -1.3830     1.2730 c6         1 KTO      -0.070900
     10 N18         -1.3350    -0.2350    -0.2260 n3         1 KTO      -0.466100
     11 O19         -0.2000     0.7170    -0.3430 os         1 KTO      -0.268300
     12 C1           1.0530     0.0160    -0.6770 c5         1 KTO       0.252300
     13 C23          2.1830     1.0830    -0.8640 c3         1 KTO      -0.094400
     14 C22          2.5740     1.9620     0.3600 c3         1 KTO       0.038500
     15 N21          1.4200     2.8210     0.7930 n8         1 KTO      -0.975200
     16 C24          3.9250     2.7110     0.0910 c          1 KTO       0.573900
     17 O25          4.0220     3.9260    -0.0650 o          1 KTO      -0.500100
     18 C2           0.8460    -0.9410    -1.9750 c5         1 KTO       0.391500
     19 O49          1.3940    -0.4700    -3.1720 oh         1 KTO      -0.633000
     20 N3           1.6310    -2.1540    -1.6860 nu         1 KTO      -0.931200
     21 C4           1.7280    -2.2310    -0.3070 ca         1 KTO       0.272000
     22 C5           1.4200    -1.0500     0.3300 ca         1 KTO      -0.169300
     23 C6           2.0770    -3.3790     0.4140 ca         1 KTO      -0.153000
     24 C7           2.1300    -3.3090     1.8200 ca         1 KTO      -0.071000
     25 C8           1.8290    -2.0980     2.4770 ca         1 KTO      -0.150000
     26 C9           1.4710    -0.9560     1.7330 ca         1 KTO      -0.054000
     27 H1          -1.5660     1.8120     1.5930 hc         1 KTO       0.077200
     28 H2          -2.9140     1.1470     2.5410 hc         1 KTO       0.077200
     29 H3          -1.0750    -0.4980     1.8670 h1         1 KTO       0.072200
     30 H4          -3.8070     1.7590    -1.6320 hc         1 KTO       0.077200
     31 H5          -2.1550     2.2160    -1.1600 hc         1 KTO       0.077200
     32 H6          -1.9420     0.1080    -2.2310 h1         1 KTO       0.072200
     33 H7          -4.2740    -0.7750    -1.9180 hc         1 KTO       0.051700
     34 H8          -3.0140    -1.9490    -1.5810 hc         1 KTO       0.051700
     35 H9          -4.7750    -0.4900     0.4690 hc         1 KTO       0.049200
     36 H10         -4.6460    -2.2090     0.1900 hc         1 KTO       0.049200
     37 H11         -2.4300    -2.3490     1.1590 hc         1 KTO       0.051700
     38 H12         -3.3800    -1.3890     2.2790 hc         1 KTO       0.051700
     39 H13          3.0860     0.5560    -1.1940 hc         1 KTO       0.073200
     40 H14          1.9130     1.7490    -1.6930 hc         1 KTO       0.073200
     41 H15          2.8080     1.2790     1.1870 h1         1 KTO       0.083700
     42 H16          1.2870     3.5810     0.1130 hn         1 KTO       0.402500
     43 H17          0.5580     2.2660     0.7010 hn         1 KTO       0.402500
     44 H19          4.8260     2.0590     0.0500 h4         1 KTO      -0.013800
     45 H22         -0.2050    -1.2090    -2.1310 h2         1 KTO       0.040700
     46 H23          2.2070    -1.0120    -3.2350 ho         1 KTO       0.449000
     47 H24          1.3930    -3.0350    -2.1420 hn         1 KTO       0.451000
     48 H25          2.3090    -4.3060    -0.1020 ha         1 KTO       0.119000
     49 H26          2.4020    -4.1900     2.3990 ha         1 KTO       0.113000
     50 H27          1.8680    -2.0450     3.5630 ha         1 KTO       0.117000
     51 H18          1.2260    -0.0250     2.2390 ha         1 KTO       0.118000
@<TRIPOS>BOND
     1     1     2 2   
     2     2     3 1   
     3     2     5 1   
     4     3     4 1   
     5     3    27 1   
     6     3    28 1   
     7     4     9 1   
     8     4    10 1   
     9     4    29 1   
    10     5     6 1   
    11     5    30 1   
    12     5    31 1   
    13     6     7 1   
    14     6    10 1   
    15     6    32 1   
    16     7     8 1   
    17     7    33 1   
    18     7    34 1   
    19     8     9 1   
    20     8    35 1   
    21     8    36 1   
    22     9    37 1   
    23     9    38 1   
    24    10    11 1   
    25    11    12 1   
    26    12    13 1   
    27    12    18 1   
    28    12    22 1   
    29    13    14 1   
    30    13    39 1   
    31    13    40 1   
    32    14    15 1   
    33    14    16 1   
    34    14    41 1   
    35    15    42 1   
    36    15    43 1   
    37    16    17 2   
    38    16    44 1   
    39    18    19 1   
    40    18    20 1   
    41    18    45 1   
    42    19    46 1   
    43    20    21 1   
    44    20    47 1   
    45    21    22 ar  
    46    21    23 ar  
    47    22    26 ar  
    48    23    24 ar  
    49    23    48 1   
    50    24    25 ar  
    51    24    49 1   
    52    25    26 ar  
    53    25    50 1   
    54    26    51 1   
@<TRIPOS>SUBSTRUCTURE
     1 KTO         1 TEMP              0 ****  ****    0 ROOT
