@<TRIPOS>MOLECULE
KTP
   42    45     1     0     0
SMALL
bcc


@<TRIPOS>ATOM
      1 P1          -2.7890    -0.7580     1.0370 p5         1 KTP       1.100700
      2 O1          -3.5380     0.5720     1.0620 o          1 KTP      -0.893500
      3 O2          -0.7650     1.8970     0.0100 o          1 KTP      -0.581100
      4 C1          -0.9040    -0.2860     0.9250 c3         1 KTP      -0.245600
      5 C2          -0.6850     0.6950    -0.1720 c          1 KTP       0.630700
      6 O3          -2.8530    -1.5710     2.3250 o          1 KTP      -0.893500
      7 O4          -3.0200    -1.5740    -0.2350 o          1 KTP      -0.893500
      8 C3          -0.3090     0.1950    -1.5360 ca         1 KTP      -0.105600
      9 C4           0.3150     1.0660    -2.3970 ca         1 KTP      -0.112000
     10 C5           0.7410     0.6570    -3.6790 ca         1 KTP      -0.055000
     11 C6           1.3960     1.5450    -4.5660 ca         1 KTP      -0.103000
     12 C7           1.7910     1.1240    -5.8060 ca         1 KTP      -0.170000
     13 C8           1.5510    -0.2050    -6.2160 ca         1 KTP      -0.158000
     14 C9           0.9220    -1.0860    -5.3780 ca         1 KTP      -0.119000
     15 C10          0.5010    -0.6790    -4.0910 ca         1 KTP      -0.031000
     16 C11         -0.1540    -1.5560    -3.1950 ca         1 KTP      -0.174000
     17 C12         -0.5450    -1.1380    -1.9550 ca         1 KTP      -0.040000
     18 C13         -1.0640     1.0800     3.0170 ca         1 KTP      -0.105000
     19 C14         -0.3400     0.2280     2.2180 ca         1 KTP       0.075700
     20 C15          0.9820    -0.1310     2.6300 ca         1 KTP      -0.042000
     21 C16          1.8390    -0.9490     1.8490 ca         1 KTP      -0.075000
     22 C17          3.0970    -1.2820     2.2720 ca         1 KTP      -0.186000
     23 C18          3.5820    -0.8150     3.5100 ca         1 KTP      -0.156000
     24 C19          2.7930    -0.0120     4.2860 ca         1 KTP      -0.138000
     25 C20          1.4890     0.3550     3.8700 ca         1 KTP      -0.036000
     26 C21          0.6940     1.2120     4.6610 ca         1 KTP      -0.194000
     27 C22         -0.5530     1.5730     4.2320 ca         1 KTP      -0.099000
     28 HC1         -0.4350    -1.2360     0.6700 hc         1 KTP       0.057700
     29 HC4          0.5020     2.0880    -2.0900 ha         1 KTP       0.138000
     30 HC6          1.5790     2.5640    -4.2500 ha         1 KTP       0.118000
     31 HC7          2.2890     1.8090    -6.4800 ha         1 KTP       0.102000
     32 HC8          1.8690    -0.5250    -7.2000 ha         1 KTP       0.101000
     33 HC9          0.7390    -2.1070    -5.6940 ha         1 KTP       0.114000
     34 HC11        -0.3550    -2.5730    -3.5120 ha         1 KTP       0.118000
     35 HC12        -1.0930    -1.8050    -1.3040 ha         1 KTP       0.220000
     36 HC13        -2.0610     1.3590     2.7070 ha         1 KTP       0.202000
     37 HC16         1.5030    -1.3180     0.8890 ha         1 KTP       0.137000
     38 HC17         3.7250    -1.9080     1.6520 ha         1 KTP       0.102000
     39 HC18         4.5770    -1.0860     3.8370 ha         1 KTP       0.093000
     40 HC19         3.1590     0.3620     5.2350 ha         1 KTP       0.098000
     41 HC21         1.0860     1.5810     5.6010 ha         1 KTP       0.092000
     42 HC22        -1.1620     2.2380     4.8310 ha         1 KTP       0.104000
@<TRIPOS>BOND
     1     1     2 1   
     2     1     4 1   
     3     1     6 1   
     4     1     7 1   
     5     3     5 2   
     6     4     5 1   
     7     4    19 1   
     8     4    28 1   
     9     5     8 1   
    10     8     9 ar  
    11     8    17 ar  
    12     9    10 ar  
    13     9    29 1   
    14    10    11 ar  
    15    10    15 ar  
    16    11    12 ar  
    17    11    30 1   
    18    12    13 ar  
    19    12    31 1   
    20    13    14 ar  
    21    13    32 1   
    22    14    15 ar  
    23    14    33 1   
    24    15    16 ar  
    25    16    17 ar  
    26    16    34 1   
    27    17    35 1   
    28    18    19 ar  
    29    18    27 ar  
    30    18    36 1   
    31    19    20 ar  
    32    20    21 ar  
    33    20    25 ar  
    34    21    22 ar  
    35    21    37 1   
    36    22    23 ar  
    37    22    38 1   
    38    23    24 ar  
    39    23    39 1   
    40    24    25 ar  
    41    24    40 1   
    42    25    26 ar  
    43    26    27 ar  
    44    26    41 1   
    45    27    42 1   
@<TRIPOS>SUBSTRUCTURE
     1 KTP         1 TEMP              0 ****  ****    0 ROOT
