@<TRIPOS>MOLECULE
KTP
   42    45     1     0     0
SMALL
No Charge or Current Charge


@<TRIPOS>ATOM
      1 P1          -3.0830    -0.4700     1.0520 p5         1 KTP       1.258500
      2 O1          -3.7680     0.8260     1.3130 o          1 KTP      -0.893500
      3 O2          -1.1880     1.8820     0.0140 o          1 KTP      -0.581100
      4 C1          -1.2810    -0.2640     1.0430 c3         1 KTP      -0.403400
      5 C2          -1.0190     0.6740    -0.1220 c          1 KTP       0.630700
      6 O3          -3.4160    -1.4480     2.1250 o          1 KTP      -0.893500
      7 O4          -3.4950    -1.0110    -0.2710 o          1 KTP      -0.893500
      8 C3          -0.4530     0.1390    -1.4300 ca         1 KTP      -0.105600
      9 C4           0.3150     1.0000    -2.2490 ca         1 KTP      -0.094000
     10 C5           0.8730     0.5440    -3.4570 ca         1 KTP      -0.055000
     11 C6           1.6420     1.4120    -4.2570 ca         1 KTP      -0.085000
     12 C7           2.1980     0.9510    -5.4630 ca         1 KTP      -0.152000
     13 C8           1.9880    -0.3760    -5.8740 ca         1 KTP      -0.140000
     14 C9           1.2220    -1.2450    -5.0790 ca         1 KTP      -0.101000
     15 C10          0.6640    -0.7880    -3.8700 ca         1 KTP      -0.031000
     16 C11         -0.1040    -1.6500    -3.0700 ca         1 KTP      -0.156000
     17 C12         -0.6610    -1.1930    -1.8620 ca         1 KTP      -0.022000
     18 C13         -1.1820     0.8380     3.3550 ca         1 KTP      -0.087000
     19 C14         -0.5110     0.1770     2.3000 ca         1 KTP       0.075700
     20 C15          0.8940    -0.0480     2.4240 ca         1 KTP      -0.042000
     21 C16          1.6490    -0.6910     1.4100 ca         1 KTP      -0.057000
     22 C17          3.0310    -0.8950     1.5590 ca         1 KTP      -0.168000
     23 C18          3.6880    -0.4640     2.7200 ca         1 KTP      -0.138000
     24 C19          2.9600     0.1730     3.7340 ca         1 KTP      -0.120000
     25 C20          1.5750     0.3830     3.5920 ca         1 KTP      -0.036000
     26 C21          0.8770     1.0300     4.6240 ca         1 KTP      -0.176000
     27 C22         -0.4970     1.2580     4.5050 ca         1 KTP      -0.081000
     28 HC1         -0.9790    -1.2810     0.7900 hc         1 KTP       0.057700
     29 HC4          0.4900     2.0280    -1.9380 ha         1 KTP       0.120000
     30 HC6          1.8090     2.4400    -3.9470 ha         1 KTP       0.100000
     31 HC7          2.7910     1.6230    -6.0790 ha         1 KTP       0.084000
     32 HC8          2.4190    -0.7310    -6.8070 ha         1 KTP       0.083000
     33 HC9          1.0630    -2.2710    -5.4020 ha         1 KTP       0.096000
     34 HC11        -0.2770    -2.6770    -3.3840 ha         1 KTP       0.100000
     35 HC12        -1.2650    -1.8870    -1.2810 ha         1 KTP       0.202000
     36 HC13        -2.2460     1.0400     3.2990 ha         1 KTP       0.184000
     37 HC16         1.1880    -1.0440     0.4940 ha         1 KTP       0.119000
     38 HC17         3.5940    -1.3890     0.7710 ha         1 KTP       0.084000
     39 HC18         4.7570    -0.6230     2.8340 ha         1 KTP       0.075000
     40 HC19         3.4750     0.5060     4.6320 ha         1 KTP       0.080000
     41 HC21         1.3990     1.3600     5.5190 ha         1 KTP       0.074000
     42 HC22        -1.0360     1.7630     5.3030 ha         1 KTP       0.086000
@<TRIPOS>BOND
     1     1     2 1   
     2     1     4 1   
     3     1     6 1   
     4     1     7 1   
     5     3     5 2   
     6     4     5 1   
     7     4    19 1   
     8     4    28 1   
     9     5     8 1   
    10     8     9 ar  
    11     8    17 ar  
    12     9    10 ar  
    13     9    29 1   
    14    10    11 ar  
    15    10    15 ar  
    16    11    12 ar  
    17    11    30 1   
    18    12    13 ar  
    19    12    31 1   
    20    13    14 ar  
    21    13    32 1   
    22    14    15 ar  
    23    14    33 1   
    24    15    16 ar  
    25    16    17 ar  
    26    16    34 1   
    27    17    35 1   
    28    18    19 ar  
    29    18    27 ar  
    30    18    36 1   
    31    19    20 ar  
    32    20    21 ar  
    33    20    25 ar  
    34    21    22 ar  
    35    21    37 1   
    36    22    23 ar  
    37    22    38 1   
    38    23    24 ar  
    39    23    39 1   
    40    24    25 ar  
    41    24    40 1   
    42    25    26 ar  
    43    26    27 ar  
    44    26    41 1   
    45    27    42 1   
@<TRIPOS>SUBSTRUCTURE
     1 KTP         1 TEMP              0 ****  ****    0 ROOT
