@<TRIPOS>MOLECULE
KTQ
   49    52     1     0     0
SMALL
abcg2


@<TRIPOS>ATOM
      1 C1          22.1570    -3.2030    50.2610 ca         1 KTQ       0.049200
      2 C2          22.6740    -3.8380    49.1260 ca         1 KTQ      -0.114500
      3 C3          22.7600    -5.2150    49.0570 ca         1 KTQ      -0.050000
      4 C4          22.3230    -5.9760    50.1330 ca         1 KTQ      -0.188200
      5 C5          21.7910    -5.3750    51.2680 ca         1 KTQ      -0.050000
      6 C6          21.7080    -3.9990    51.3220 ca         1 KTQ      -0.114500
      7 N1          22.4220    -7.4180    50.0710 no         1 KTQ       0.696200
      8 O1          22.8940    -7.9170    49.0740 o          1 KTQ      -0.405500
      9 O2          22.0290    -8.0600    51.0190 o          1 KTQ      -0.405500
     10 C7          22.0490    -1.7560    50.3530 cc         1 KTQ       0.073400
     11 C8          21.3170     0.1220    51.0660 cd         1 KTQ      -0.070000
     12 C9          22.7430    -0.8000    49.6300 cd         1 KTQ       0.085900
     13 C10         22.6320     1.6770    49.7700 cc         1 KTQ      -0.106000
     14 C11         22.0160     2.7140    50.3820 cd         1 KTQ      -0.135000
     15 C12         21.0040     2.4760    51.3520 cc         1 KTQ      -0.099000
     16 C13         20.6600     1.2040    51.6930 cd         1 KTQ      -0.074000
     17 N2          21.1970    -1.1730    51.2450 nc         1 KTQ      -0.278600
     18 N3          22.2620     0.4030    50.0910 na         1 KTQ       0.097100
     19 N4          23.7460    -0.8980    48.7010 nu         1 KTQ      -0.813200
     20 C14         25.0400    -1.4960    49.0230 c3         1 KTQ       0.221800
     21 C15         25.4390    -1.4360    50.4960 c3         1 KTQ      -0.051100
     22 C16         25.3440    -0.0640    51.1040 ca         1 KTQ      -0.122300
     23 C17         24.5330     0.1700    52.2140 ca         1 KTQ      -0.074000
     24 C18         24.3890     1.4340    52.7540 ca         1 KTQ      -0.170500
     25 C19         25.0680     2.5160    52.1940 ca         1 KTQ       0.139100
     26 C20         25.9000     2.3010    51.0990 ca         1 KTQ      -0.170500
     27 C21         26.0240     1.0210    50.5680 ca         1 KTQ      -0.074000
     28 O3          24.8590     3.7180    52.7690 os         1 KTQ      -0.339100
     29 C22         25.4530     4.8550    52.1780 c3         1 KTQ       0.147900
     30 H1          22.9910    -3.2560    48.2720 ha         1 KTQ       0.142000
     31 H2          23.1580    -5.6790    48.1670 ha         1 KTQ       0.148000
     32 H3          21.4470    -5.9640    52.1050 ha         1 KTQ       0.148000
     33 H4          21.2960    -3.5280    52.2030 ha         1 KTQ       0.142000
     34 H5          23.4220     1.7940    49.0440 h4         1 KTQ       0.139000
     35 H6          22.3130     3.7220    50.1340 ha         1 KTQ       0.129000
     36 H7          20.5140     3.3160    51.8250 ha         1 KTQ       0.126000
     37 H8          19.9050     0.9940    52.4370 ha         1 KTQ       0.143000
     38 H9          23.7940    -0.1410    48.0400 hn         1 KTQ       0.467000
     39 H10         25.0690    -2.5430    48.7070 h1         1 KTQ       0.045200
     40 H11         25.7810    -0.9780    48.4130 h1         1 KTQ       0.045200
     41 H12         24.8220    -2.1280    51.0750 hc         1 KTQ       0.060700
     42 H13         26.4610    -1.8220    50.5610 hc         1 KTQ       0.060700
     43 H14         23.9810    -0.6540    52.6510 ha         1 KTQ       0.115000
     44 H15         23.7320     1.5940    53.6000 ha         1 KTQ       0.124000
     45 H16         26.4460     3.1110    50.6360 ha         1 KTQ       0.124000
     46 H17         26.6720     0.8850    49.7090 ha         1 KTQ       0.115000
     47 H18         25.1410     5.7120    52.7690 h1         1 KTQ       0.040367
     48 H19         26.5460     4.8020    52.1890 h1         1 KTQ       0.040367
     49 H20         25.1200     4.9990    51.1460 h1         1 KTQ       0.040367
@<TRIPOS>BOND
     1     1     2 ar  
     2     1     6 ar  
     3     1    10 1   
     4     2     3 ar  
     5     2    30 1   
     6     3     4 ar  
     7     3    31 1   
     8     4     5 ar  
     9     4     7 1   
    10     5     6 ar  
    11     5    32 1   
    12     6    33 1   
    13     7     8 1   
    14     7     9 1   
    15    10    12 2   
    16    10    17 1   
    17    11    16 1   
    18    11    17 2   
    19    11    18 1   
    20    12    18 1   
    21    12    19 1   
    22    13    14 2   
    23    13    18 1   
    24    13    34 1   
    25    14    15 1   
    26    14    35 1   
    27    15    16 2   
    28    15    36 1   
    29    16    37 1   
    30    19    20 1   
    31    19    38 1   
    32    20    21 1   
    33    20    39 1   
    34    20    40 1   
    35    21    22 1   
    36    21    41 1   
    37    21    42 1   
    38    22    23 ar  
    39    22    27 ar  
    40    23    24 ar  
    41    23    43 1   
    42    24    25 ar  
    43    24    44 1   
    44    25    26 ar  
    45    25    28 1   
    46    26    27 ar  
    47    26    45 1   
    48    27    46 1   
    49    28    29 1   
    50    29    47 1   
    51    29    48 1   
    52    29    49 1   
@<TRIPOS>SUBSTRUCTURE
     1 KTQ         1 TEMP              0 ****  ****    0 ROOT
