@<TRIPOS>MOLECULE
KTQ
   49    52     1     0     0
SMALL
No Charge or Current Charge


@<TRIPOS>ATOM
      1 C1          22.0930    -3.2030    50.1940 ca         1 KTQ       0.049200
      2 C2          22.3710    -3.7840    48.9410 ca         1 KTQ      -0.114500
      3 C3          22.6180    -5.1620    48.8250 ca         1 KTQ      -0.050000
      4 C4          22.5670    -5.9950    49.9670 ca         1 KTQ      -0.188200
      5 C5          22.2510    -5.4190    51.2190 ca         1 KTQ      -0.050000
      6 C6          22.0060    -4.0390    51.3240 ca         1 KTQ      -0.114500
      7 N1          22.8290    -7.4670    49.8500 no         1 KTQ       0.696200
      8 O1          23.1000    -7.9260    48.7320 o          1 KTQ      -0.405500
      9 O2          22.7680    -8.1570    50.8760 o          1 KTQ      -0.405500
     10 C7          21.7840    -1.7740    50.3120 cc         1 KTQ       0.073400
     11 C8          20.8550     0.0320    50.9300 cd         1 KTQ      -0.070000
     12 C9          22.5180    -0.7840    49.6820 cd         1 KTQ       0.085900
     13 C10         22.2590     1.6950    49.7680 cc         1 KTQ      -0.106000
     14 C11         21.4390     2.6440    50.3800 cd         1 KTQ      -0.135000
     15 C12         20.3780     2.3300    51.2210 cc         1 KTQ      -0.099000
     16 C13         20.0400     1.0300    51.5370 cd         1 KTQ      -0.074000
     17 N2          20.7690    -1.2760    51.0890 nc         1 KTQ      -0.278600
     18 N3          21.8880     0.3840    50.0820 na         1 KTQ       0.097100
     19 N4          23.6820    -0.8380    48.9250 nu         1 KTQ      -0.813200
     20 C14         24.8890    -1.6100    49.2900 c3         1 KTQ       0.221800
     21 C15         25.2450    -1.4750    50.7930 c3         1 KTQ      -0.051100
     22 C16         25.3130    -0.0280    51.2860 ca         1 KTQ      -0.122300
     23 C17         24.4210     0.4240    52.2770 ca         1 KTQ      -0.074000
     24 C18         24.4550     1.7620    52.7040 ca         1 KTQ      -0.170500
     25 C19         25.3810     2.6610    52.1520 ca         1 KTQ       0.139100
     26 C20         26.2840     2.2090    51.1650 ca         1 KTQ      -0.170500
     27 C21         26.2480     0.8700    50.7370 ca         1 KTQ      -0.074000
     28 O3          25.3650     3.9640    52.6070 os         1 KTQ      -0.339100
     29 C22         26.2640     4.9650    52.0980 c3         1 KTQ       0.147900
     30 H1          22.3980    -3.1600    48.0510 ha         1 KTQ       0.142000
     31 H2          22.8420    -5.5750    47.8430 ha         1 KTQ       0.148000
     32 H3          22.1900    -6.0330    52.1170 ha         1 KTQ       0.148000
     33 H4          21.7580    -3.6120    52.2940 ha         1 KTQ       0.142000
     34 H5          23.1040     1.8800    49.1190 h4         1 KTQ       0.139000
     35 H6          21.6470     3.6920    50.1910 ha         1 KTQ       0.129000
     36 H7          19.7970     3.1380    51.6540 ha         1 KTQ       0.126000
     37 H8          19.2210     0.7880    52.2070 ha         1 KTQ       0.143000
     38 H9          23.8800     0.0250    48.4180 hn         1 KTQ       0.467000
     39 H10         24.7590    -2.6710    49.0440 h1         1 KTQ       0.045200
     40 H11         25.7390    -1.2460    48.6960 h1         1 KTQ       0.045200
     41 H12         24.5130    -2.0430    51.3780 hc         1 KTQ       0.060700
     42 H13         26.2080    -1.9690    50.9650 hc         1 KTQ       0.060700
     43 H14         23.6870    -0.2550    52.7060 ha         1 KTQ       0.115000
     44 H15         23.7560     2.1060    53.4610 ha         1 KTQ       0.124000
     45 H16         27.0140     2.8780    50.7200 ha         1 KTQ       0.124000
     46 H17         26.9440     0.5340    49.9720 ha         1 KTQ       0.115000
     47 H18         26.0800     5.9270    52.5920 h1         1 KTQ       0.040367
     48 H19         27.3080     4.6820    52.2830 h1         1 KTQ       0.040367
     49 H20         26.1210     5.1040    51.0190 h1         1 KTQ       0.040367
@<TRIPOS>BOND
     1     1     2 ar  
     2     1     6 ar  
     3     1    10 1   
     4     2     3 ar  
     5     2    30 1   
     6     3     4 ar  
     7     3    31 1   
     8     4     5 ar  
     9     4     7 1   
    10     5     6 ar  
    11     5    32 1   
    12     6    33 1   
    13     7     8 1   
    14     7     9 1   
    15    10    12 2   
    16    10    17 1   
    17    11    16 1   
    18    11    17 2   
    19    11    18 1   
    20    12    18 1   
    21    12    19 1   
    22    13    14 2   
    23    13    18 1   
    24    13    34 1   
    25    14    15 1   
    26    14    35 1   
    27    15    16 2   
    28    15    36 1   
    29    16    37 1   
    30    19    20 1   
    31    19    38 1   
    32    20    21 1   
    33    20    39 1   
    34    20    40 1   
    35    21    22 1   
    36    21    41 1   
    37    21    42 1   
    38    22    23 ar  
    39    22    27 ar  
    40    23    24 ar  
    41    23    43 1   
    42    24    25 ar  
    43    24    44 1   
    44    25    26 ar  
    45    25    28 1   
    46    26    27 ar  
    47    26    45 1   
    48    27    46 1   
    49    28    29 1   
    50    29    47 1   
    51    29    48 1   
    52    29    49 1   
@<TRIPOS>SUBSTRUCTURE
     1 KTQ         1 TEMP              0 ****  ****    0 ROOT
