@<TRIPOS>MOLECULE
KTR
   31    33     1     0     0
SMALL
abcg2


@<TRIPOS>ATOM
      1 O3          -5.2160     0.3380     0.5840 o          1 KTR      -0.713000
      2 C4          -1.1160     1.4010    -1.3820 cc         1 KTR      -0.197000
      3 C5          -1.8750     0.3520    -0.8850 cd         1 KTR      -0.046300
      4 C6          -1.7480    -1.6780     0.2700 c5         1 KTR       0.067600
      5 N1          -1.0520    -0.5460    -0.3240 na         1 KTR       0.064000
      6 C7          -3.1380    -1.5550    -0.3670 c5         1 KTR      -0.078400
      7 C8          -3.2930    -0.0620    -0.7370 c5         1 KTR      -0.163400
      8 C9          -4.0620     0.7430     0.3490 c          1 KTR       0.729000
      9 C10          2.7090    -0.2370     0.1220 ca         1 KTR      -0.135600
     10 C11          2.8930     1.0640     0.5860 ca         1 KTR      -0.071000
     11 C12          4.1690     1.6080     0.6560 ca         1 KTR      -0.130000
     12 C13          5.2680     0.8620     0.2530 ca         1 KTR      -0.108000
     13 C14          5.0910    -0.4380    -0.2050 ca         1 KTR      -0.130000
     14 C15          3.8210    -0.9900    -0.2550 ca         1 KTR      -0.071000
     15 O1           1.2510    -2.0510     0.4600 o          1 KTR      -0.583100
     16 C2           0.2510    -0.1130    -0.3900 cd         1 KTR      -0.315600
     17 C3           0.2160     1.1070    -1.0710 cc         1 KTR      -0.112000
     18 O2          -3.4780     1.7050     0.8750 o          1 KTR      -0.713000
     19 H2          -1.4870     2.2710    -1.8990 ha         1 KTR       0.130000
     20 H3          -1.2570    -2.6150     0.0280 h1         1 KTR       0.058700
     21 H4          -1.7710    -1.5740     1.3570 h1         1 KTR       0.058700
     22 H5          -3.1730    -2.1690    -1.2680 hc         1 KTR       0.047200
     23 H6          -3.9280    -1.9020     0.2960 hc         1 KTR       0.047200
     24 H7          -3.8460     0.0430    -1.6750 hc         1 KTR       0.061700
     25 H8           2.0460     1.6490     0.9190 ha         1 KTR       0.129000
     26 H9           4.3040     2.6140     1.0300 ha         1 KTR       0.105500
     27 H10          6.2610     1.2890     0.3030 ha         1 KTR       0.100000
     28 H11          5.9460    -1.0240    -0.5170 ha         1 KTR       0.105500
     29 H12          3.6890    -2.0070    -0.6040 ha         1 KTR       0.129000
     30 H13          1.0770     1.7000    -1.3370 ha         1 KTR       0.113000
     31 C1           1.3650    -0.8870     0.0940 c          1 KTR       0.625300
@<TRIPOS>BOND
     1     1     8 1   
     2     2     3 2   
     3     2    17 1   
     4     2    19 1   
     5     3     5 1   
     6     3     7 1   
     7     4     5 1   
     8     4     6 1   
     9     4    20 1   
    10     4    21 1   
    11     5    16 1   
    12     6     7 1   
    13     6    22 1   
    14     6    23 1   
    15     7     8 1   
    16     7    24 1   
    17     8    18 1   
    18     9    10 ar  
    19     9    14 ar  
    20     9    31 1   
    21    10    11 ar  
    22    10    25 1   
    23    11    12 ar  
    24    11    26 1   
    25    12    13 ar  
    26    12    27 1   
    27    13    14 ar  
    28    13    28 1   
    29    14    29 1   
    30    15    31 2   
    31    16    17 2   
    32    16    31 1   
    33    17    30 1   
@<TRIPOS>SUBSTRUCTURE
     1 KTR         1 TEMP              0 ****  ****    0 ROOT
