@<TRIPOS>MOLECULE
KTR
   31    33     1     0     0
SMALL
No Charge or Current Charge


@<TRIPOS>ATOM
      1 O3          -5.2900     1.2770    -0.4610 o          1 KTR      -0.713000
      2 C4          -1.1300     1.3640    -1.1280 cc         1 KTR      -0.197000
      3 C5          -1.8870     0.3860    -0.5640 cd         1 KTR      -0.046300
      4 C6          -1.7920    -1.7410     0.3230 c5         1 KTR       0.067600
      5 N1          -1.0930    -0.5230     0.0190 na         1 KTR       0.064000
      6 C7          -3.2040    -1.5680    -0.4020 c5         1 KTR      -0.078400
      7 C8          -3.3050    -0.0100    -0.8010 c5         1 KTR      -0.163400
      8 C9          -4.3590     0.7030     0.0860 c          1 KTR       0.729000
      9 C10          2.8100    -0.2310     0.2290 ca         1 KTR      -0.135600
     10 C11          3.0360     1.1030     0.6330 ca         1 KTR      -0.071000
     11 C12          4.3100     1.6810     0.4940 ca         1 KTR      -0.130000
     12 C13          5.3700     0.9300    -0.0380 ca         1 KTR      -0.108000
     13 C14          5.1580    -0.4030    -0.4260 ca         1 KTR      -0.130000
     14 C15          3.8860    -0.9840    -0.2870 ca         1 KTR      -0.071000
     15 O1           1.3550    -1.9820     0.9050 o          1 KTR      -0.583100
     16 C2           0.2490    -0.1370    -0.0800 cd         1 KTR      -0.315600
     17 C3           0.2130     1.0530    -0.7920 cc         1 KTR      -0.112000
     18 O2          -4.2310     0.6900     1.3020 o          1 KTR      -0.713000
     19 H2          -1.4630     2.1880    -1.7520 ha         1 KTR       0.130000
     20 H3          -1.2430    -2.6160    -0.0480 h1         1 KTR       0.058700
     21 H4          -1.9070    -1.8360     1.4100 h1         1 KTR       0.058700
     22 H5          -3.2320    -2.1860    -1.3070 hc         1 KTR       0.047200
     23 H6          -4.0350    -1.9070     0.2280 hc         1 KTR       0.047200
     24 H7          -3.5900     0.1100    -1.8520 hc         1 KTR       0.061700
     25 H8           2.2270     1.6900     1.0650 ha         1 KTR       0.129000
     26 H9           4.4750     2.7100     0.8050 ha         1 KTR       0.105500
     27 H10          6.3560     1.3790    -0.1440 ha         1 KTR       0.100000
     28 H11          5.9810    -0.9880    -0.8320 ha         1 KTR       0.105500
     29 H12          3.7320    -2.0190    -0.5880 ha         1 KTR       0.129000
     30 H13          1.0660     1.6400    -1.1220 ha         1 KTR       0.113000
     31 C1           1.4550    -0.8740     0.3900 c          1 KTR       0.625300
@<TRIPOS>BOND
     1     1     8 1   
     2     2     3 2   
     3     2    17 1   
     4     2    19 1   
     5     3     5 1   
     6     3     7 1   
     7     4     5 1   
     8     4     6 1   
     9     4    20 1   
    10     4    21 1   
    11     5    16 1   
    12     6     7 1   
    13     6    22 1   
    14     6    23 1   
    15     7     8 1   
    16     7    24 1   
    17     8    18 1   
    18     9    10 ar  
    19     9    14 ar  
    20     9    31 1   
    21    10    11 ar  
    22    10    25 1   
    23    11    12 ar  
    24    11    26 1   
    25    12    13 ar  
    26    12    27 1   
    27    13    14 ar  
    28    13    28 1   
    29    14    29 1   
    30    15    31 2   
    31    16    17 2   
    32    16    31 1   
    33    17    30 1   
@<TRIPOS>SUBSTRUCTURE
     1 KTR         1 TEMP              0 ****  ****    0 ROOT
