@<TRIPOS>MOLECULE
KTS
   96    99     1     0     0
SMALL
abcg2


@<TRIPOS>ATOM
      1 O20         -1.0530    -2.3090     0.3170 oh         1 KTS      -0.695000
      2 C23         -1.1090    -1.5790    -0.8780 c6         1 KTS       0.150300
      3 C6          -2.5540    -1.3450    -1.3390 c6         1 KTS       0.350300
      4 O5          -3.2840    -0.8280    -0.2740 os         1 KTS      -0.464000
      5 C5          -4.6770    -0.9860    -0.3380 c5         1 KTS       0.109300
      6 C4          -5.4720     0.1360    -1.0060 c5         1 KTS       0.133300
      7 O4          -5.6210     0.0630    -2.3920 oh         1 KTS      -0.718000
      8 C3          -6.8380    -0.0170    -0.3360 c5         1 KTS       0.384300
      9 O3          -7.4340     1.2200    -0.1880 os         1 KTS      -0.459000
     10 O2          -6.6110    -0.6420     0.9120 os         1 KTS      -0.494000
     11 C2          -5.2350    -0.9460     1.0780 c5         1 KTS       0.136300
     12 C1          -5.0770    -2.2500     1.8500 c3         1 KTS       0.171300
     13 O1          -5.7320    -3.3210     1.2150 oh         1 KTS      -0.705000
     14 C           -5.5090    -2.0800     3.2980 c3         1 KTS       0.132600
     15 O           -5.2150    -3.2630     4.0010 oh         1 KTS      -0.649000
     16 C10         -0.3970    -0.2480    -0.6600 c6         1 KTS       0.194300
     17 C9          -0.5270     0.6410    -1.9000 c6         1 KTS       0.127300
     18 O8           0.2130     0.0580    -2.9440 oh         1 KTS      -0.695000
     19 C7          -2.0100     0.7710    -2.2420 c6         1 KTS       0.124300
     20 C8          -2.2760     1.5870    -3.4860 c3         1 KTS       0.168600
     21 O7          -3.6720     1.7960    -3.5780 oh         1 KTS      -0.731000
     22 O6          -2.5890    -0.5060    -2.4540 os         1 KTS      -0.456000
     23 O9           0.9550    -0.5140    -0.3660 os         1 KTS      -0.449000
     24 C11          1.5050     0.1910     0.6980 c5         1 KTS       0.372300
     25 C22          2.9220    -0.3570     0.9550 c5         1 KTS       0.137300
     26 O19          2.9690    -1.0150     2.1870 oh         1 KTS      -0.717000
     27 C15          3.8010     0.8970     0.8380 c5         1 KTS       0.114300
     28 C12          2.9600     1.7940    -0.0590 c5         1 KTS       0.126300
     29 C13          3.2810     3.2790     0.0170 c3         1 KTS       0.178300
     30 C14          2.4280     4.0660    -0.9670 c3         1 KTS       0.133600
     31 O12          2.8800     5.3980    -0.9900 oh         1 KTS      -0.646000
     32 O11          3.1920     3.7830     1.3270 oh         1 KTS      -0.702000
     33 O10          1.6420     1.5600     0.4020 os         1 KTS      -0.491000
     34 O13          5.0640     0.7200     0.2490 os         1 KTS      -0.463000
     35 C16          6.1120     0.4340     1.1160 c6         1 KTS       0.360300
     36 C21          7.4360     0.6750     0.3840 c6         1 KTS       0.116300
     37 O18          7.4960     1.9460    -0.2130 oh         1 KTS      -0.713000
     38 C20          7.6400    -0.3690    -0.7080 c6         1 KTS       0.139300
     39 O17          8.9120    -0.2620    -1.3020 oh         1 KTS      -0.673000
     40 C19          7.5240    -1.7740    -0.1170 c6         1 KTS       0.151300
     41 O16          8.5660    -2.0540     0.7840 oh         1 KTS      -0.716000
     42 C17          6.1940    -1.8850     0.6110 c6         1 KTS       0.162300
     43 O14          6.0610    -0.8760     1.6010 os         1 KTS      -0.457000
     44 C18          5.9960    -3.2140     1.3050 c3         1 KTS       0.173600
     45 O15          4.6560    -3.2690     1.7570 oh         1 KTS      -0.741000
     46 C29         -8.8120     1.1850     0.1460 c3         1 KTS       0.167600
     47 C30         -9.4110     2.5620    -0.0560 c3         1 KTS      -0.082400
     48 C31        -10.8950     2.5740     0.2840 c3         1 KTS      -0.089100
     49 H1          -1.3180    -3.2160     0.1360 ho         1 KTS       0.509000
     50 H2          -0.6060    -2.1150    -1.6940 h1         1 KTS       0.073700
     51 H3          -2.9920    -2.2950    -1.6740 h2         1 KTS       0.077700
     52 H4          -4.9360    -1.9420    -0.8150 h1         1 KTS       0.073700
     53 H5          -5.0350     1.0960    -0.6900 h1         1 KTS       0.062700
     54 H6          -4.8780     0.5190    -2.8170 ho         1 KTS       0.546000
     55 H7          -7.4860    -0.6780    -0.9320 h2         1 KTS       0.061700
     56 H8          -4.7270    -0.1470     1.6380 h1         1 KTS       0.066700
     57 H9          -4.0080    -2.4910     1.8380 h1         1 KTS       0.097700
     58 H10         -6.6710    -3.1120     1.1660 ho         1 KTS       0.508000
     59 H11         -4.9760    -1.2150     3.7150 h1         1 KTS       0.026700
     60 H12         -6.5810    -1.8410     3.3390 h1         1 KTS       0.026700
     61 H13         -5.5170    -3.1530     4.9070 ho         1 KTS       0.441000
     62 H14         -0.8800     0.2740     0.1770 h1         1 KTS       0.070700
     63 H15         -0.1480     1.6400    -1.6490 h1         1 KTS       0.050700
     64 H16          0.4320     0.7360    -3.5880 ho         1 KTS       0.498000
     65 H17         -2.4950     1.2840    -1.3990 h1         1 KTS       0.066700
     66 H18         -1.7410     2.5410    -3.4040 h1         1 KTS       0.033200
     67 H19         -1.8940     1.0660    -4.3700 h1         1 KTS       0.033200
     68 H20         -3.8880     2.0990    -4.4650 ho         1 KTS       0.517000
     69 H21          0.8660     0.1180     1.5860 h2         1 KTS       0.092700
     70 H22          3.1770    -1.0320     0.1280 h1         1 KTS       0.068700
     71 H23          3.6530    -1.7010     2.1430 ho         1 KTS       0.548000
     72 H24          3.8950     1.3540     1.8330 h1         1 KTS       0.076700
     73 H25          3.0760     1.4680    -1.1050 h1         1 KTS       0.065700
     74 H26          4.3310     3.3840    -0.2800 h1         1 KTS       0.097700
     75 H27          2.5110     3.5930    -1.9540 h1         1 KTS       0.021700
     76 H28          1.3710     4.0030    -0.6700 h1         1 KTS       0.021700
     77 H29          2.3370     5.8870    -1.6150 ho         1 KTS       0.440000
     78 H30          2.2920     3.6470     1.6450 ho         1 KTS       0.510000
     79 H31          6.0560     1.0750     2.0060 h2         1 KTS       0.077700
     80 H32          8.2320     0.5500     1.1280 h1         1 KTS       0.065700
     81 H33          7.6770     2.6030     0.4670 ho         1 KTS       0.515000
     82 H34          6.8480    -0.2560    -1.4630 h1         1 KTS       0.067700
     83 H35          9.0550     0.6570    -1.5500 ho         1 KTS       0.469000
     84 H36          7.5130    -2.4970    -0.9460 h1         1 KTS       0.052700
     85 H37          9.4000    -1.8540     0.3450 ho         1 KTS       0.523000
     86 H38          5.4100    -1.7840    -0.1510 h1         1 KTS       0.062700
     87 H39          6.2020    -4.0170     0.5870 h1         1 KTS       0.044700
     88 H40          6.7020    -3.3190     2.1340 h1         1 KTS       0.044700
     89 H41          4.5520    -4.0270     2.3400 ho         1 KTS       0.519000
     90 H42         -9.3330     0.4550    -0.4890 h1         1 KTS       0.028700
     91 H43         -8.9520     0.8650     1.1850 h1         1 KTS       0.028700
     92 H44         -8.8820     3.2870     0.5680 hc         1 KTS       0.051200
     93 H45         -9.2650     2.8710    -1.0950 hc         1 KTS       0.051200
     94 H46        -11.4520     1.8780    -0.3440 hc         1 KTS       0.033700
     95 H47        -11.0660     2.2920     1.3240 hc         1 KTS       0.033700
     96 H48        -11.3210     3.5660     0.1360 hc         1 KTS       0.033700
@<TRIPOS>BOND
     1     1     2 1   
     2     1    49 1   
     3     2     3 1   
     4     2    16 1   
     5     2    50 1   
     6     3     4 1   
     7     3    22 1   
     8     3    51 1   
     9     4     5 1   
    10     5     6 1   
    11     5    11 1   
    12     5    52 1   
    13     6     7 1   
    14     6     8 1   
    15     6    53 1   
    16     7    54 1   
    17     8     9 1   
    18     8    10 1   
    19     8    55 1   
    20     9    46 1   
    21    10    11 1   
    22    11    12 1   
    23    11    56 1   
    24    12    13 1   
    25    12    14 1   
    26    12    57 1   
    27    13    58 1   
    28    14    15 1   
    29    14    59 1   
    30    14    60 1   
    31    15    61 1   
    32    16    17 1   
    33    16    23 1   
    34    16    62 1   
    35    17    18 1   
    36    17    19 1   
    37    17    63 1   
    38    18    64 1   
    39    19    20 1   
    40    19    22 1   
    41    19    65 1   
    42    20    21 1   
    43    20    66 1   
    44    20    67 1   
    45    21    68 1   
    46    23    24 1   
    47    24    25 1   
    48    24    33 1   
    49    24    69 1   
    50    25    26 1   
    51    25    27 1   
    52    25    70 1   
    53    26    71 1   
    54    27    28 1   
    55    27    34 1   
    56    27    72 1   
    57    28    29 1   
    58    28    33 1   
    59    28    73 1   
    60    29    30 1   
    61    29    32 1   
    62    29    74 1   
    63    30    31 1   
    64    30    75 1   
    65    30    76 1   
    66    31    77 1   
    67    32    78 1   
    68    34    35 1   
    69    35    36 1   
    70    35    43 1   
    71    35    79 1   
    72    36    37 1   
    73    36    38 1   
    74    36    80 1   
    75    37    81 1   
    76    38    39 1   
    77    38    40 1   
    78    38    82 1   
    79    39    83 1   
    80    40    41 1   
    81    40    42 1   
    82    40    84 1   
    83    41    85 1   
    84    42    43 1   
    85    42    44 1   
    86    42    86 1   
    87    44    45 1   
    88    44    87 1   
    89    44    88 1   
    90    45    89 1   
    91    46    47 1   
    92    46    90 1   
    93    46    91 1   
    94    47    48 1   
    95    47    92 1   
    96    47    93 1   
    97    48    94 1   
    98    48    95 1   
    99    48    96 1   
@<TRIPOS>SUBSTRUCTURE
     1 KTS         1 TEMP              0 ****  ****    0 ROOT
