@<TRIPOS>MOLECULE
KTS
   96    99     1     0     0
SMALL
No Charge or Current Charge


@<TRIPOS>ATOM
      1 O20         -0.3520    -0.4300     1.5470 oh         1 KTS      -0.695000
      2 C23         -0.4690    -0.3150     0.1040 c6         1 KTS       0.150300
      3 C6          -1.7290    -1.0990    -0.4120 c6         1 KTS       0.350300
      4 O5          -2.9440    -0.6790     0.2550 os         1 KTS      -0.464000
      5 C5          -4.0960    -1.5670     0.1670 c5         1 KTS       0.109300
      6 C4          -4.9300    -1.2540    -1.1260 c5         1 KTS       0.133300
      7 O4          -4.5760    -2.0820    -2.2520 oh         1 KTS      -0.718000
      8 C3          -6.4160    -1.4470    -0.6200 c5         1 KTS       0.384300
      9 O3          -7.0880    -0.1780    -0.7660 os         1 KTS      -0.459000
     10 O2          -6.3330    -1.7490     0.7880 os         1 KTS      -0.494000
     11 C2          -5.1080    -1.1580     1.2660 c5         1 KTS       0.136300
     12 C1          -4.7900    -1.6410     2.7090 c3         1 KTS       0.171300
     13 O1          -4.7280    -3.0870     2.7380 oh         1 KTS      -0.705000
     14 C           -5.8240    -1.1150     3.7510 c3         1 KTS       0.132600
     15 O           -5.4320    -1.4380     5.0980 oh         1 KTS      -0.649000
     16 C10         -0.5030     1.1850    -0.3960 c6         1 KTS       0.194300
     17 C9          -0.7670     1.2520    -1.9340 c6         1 KTS       0.127300
     18 O8           0.4050     0.8270    -2.6630 oh         1 KTS      -0.695000
     19 C7          -2.0290     0.4100    -2.2850 c6         1 KTS       0.124300
     20 C8          -2.3610     0.3820    -3.8090 c3         1 KTS       0.168600
     21 O7          -3.5030    -0.4480    -4.1070 oh         1 KTS      -0.731000
     22 O6          -1.8760    -0.9570    -1.8370 os         1 KTS      -0.456000
     23 O9           0.6750     2.0130    -0.1140 os         1 KTS      -0.449000
     24 C11          1.4530     1.8590     1.0990 c5         1 KTS       0.372300
     25 C22          2.5280     0.7110     0.8810 c5         1 KTS       0.137300
     26 O19          2.3180    -0.4580     1.7000 oh         1 KTS      -0.717000
     27 C15          3.8680     1.4610     1.1910 c5         1 KTS       0.114300
     28 C12          3.5020     2.8770     0.6820 c5         1 KTS       0.126300
     29 C13          4.4700     4.0270     1.0820 c3         1 KTS       0.178300
     30 C14          4.0350     5.4030     0.4920 c3         1 KTS       0.133600
     31 O12          5.0220     6.4210     0.7380 oh         1 KTS      -0.646000
     32 O11          4.5750     4.1010     2.5230 oh         1 KTS      -0.702000
     33 O10          2.2010     3.0810     1.2670 os         1 KTS      -0.491000
     34 O13          4.9470     0.9430     0.3620 os         1 KTS      -0.463000
     35 C16          5.6480    -0.2260     0.8440 c6         1 KTS       0.360300
     36 C21          7.0210    -0.3950     0.1080 c6         1 KTS       0.116300
     37 O18          7.8090     0.8210     0.1460 oh         1 KTS      -0.713000
     38 C20          6.8040    -0.8380    -1.3740 c6         1 KTS       0.139300
     39 O17          8.0770    -1.1050    -1.9960 oh         1 KTS      -0.673000
     40 C19          5.8840    -2.0920    -1.4590 c6         1 KTS       0.151300
     41 O16          6.5900    -3.2340    -0.9300 oh         1 KTS      -0.716000
     42 C17          4.5620    -1.7820    -0.6870 c6         1 KTS       0.162300
     43 O14          4.8310    -1.4030     0.6880 os         1 KTS      -0.457000
     44 C18          3.5700    -2.9820    -0.6570 c3         1 KTS       0.173600
     45 O15          2.4130    -2.7130     0.1610 oh         1 KTS      -0.741000
     46 C29         -8.4760    -0.1450    -0.4040 c3         1 KTS       0.167600
     47 C30         -8.9880     1.2860    -0.6520 c3         1 KTS      -0.082400
     48 C31        -10.4780     1.4620    -0.2990 c3         1 KTS      -0.089100
     49 H1           0.6240    -0.5230     1.7380 ho         1 KTS       0.509000
     50 H2           0.3960    -0.7970    -0.3730 h1         1 KTS       0.073700
     51 H3          -1.5610    -2.1630    -0.1830 h2         1 KTS       0.077700
     52 H4          -3.7960    -2.6210     0.2470 h1         1 KTS       0.073700
     53 H5          -4.7960    -0.1980    -1.4000 h1         1 KTS       0.062700
     54 H6          -4.0400    -1.4950    -2.8660 ho         1 KTS       0.546000
     55 H7          -6.9470    -2.2390    -1.1650 h2         1 KTS       0.061700
     56 H8          -5.2290    -0.0650     1.2850 h1         1 KTS       0.066700
     57 H9          -3.8110    -1.2180     2.9790 h1         1 KTS       0.097700
     58 H10         -5.5530    -3.3910     2.2920 ho         1 KTS       0.508000
     59 H11         -5.9080    -0.0250     3.6410 h1         1 KTS       0.026700
     60 H12         -6.8110    -1.5420     3.5280 h1         1 KTS       0.026700
     61 H13         -6.1520    -1.1280     5.6910 ho         1 KTS       0.441000
     62 H14         -1.3570     1.6620     0.1060 h1         1 KTS       0.070700
     63 H15         -0.9890     2.3000    -2.1870 h1         1 KTS       0.050700
     64 H16          1.1370     1.4120    -2.3610 ho         1 KTS       0.498000
     65 H17         -2.8930     0.8600    -1.7760 h1         1 KTS       0.066700
     66 H18         -2.5470     1.4140    -4.1380 h1         1 KTS       0.033200
     67 H19         -1.4810     0.0160    -4.3540 h1         1 KTS       0.033200
     68 H20         -3.6470    -0.3850    -5.0830 ho         1 KTS       0.517000
     69 H21          0.8100     1.7000     1.9740 h2         1 KTS       0.092700
     70 H22          2.5160     0.4200    -0.1780 h1         1 KTS       0.068700
     71 H23          2.7370    -1.2280     1.2090 ho         1 KTS       0.548000
     72 H24          4.1380     1.4520     2.2560 h1         1 KTS       0.076700
     73 H25          3.3990     2.8750    -0.4130 h1         1 KTS       0.065700
     74 H26          5.4500     3.7850     0.6480 h1         1 KTS       0.097700
     75 H27          3.8830     5.2900    -0.5900 h1         1 KTS       0.021700
     76 H28          3.0700     5.6960     0.9270 h1         1 KTS       0.021700
     77 H29          4.6590     7.2660     0.3880 ho         1 KTS       0.440000
     78 H30          3.6500     4.1790     2.8510 ho         1 KTS       0.510000
     79 H31          5.8620    -0.0870     1.9150 h2         1 KTS       0.077700
     80 H32          7.5650    -1.1980     0.6270 h1         1 KTS       0.065700
     81 H33          7.1650     1.5650     0.0700 ho         1 KTS       0.515000
     82 H34          6.2970    -0.0160    -1.9040 h1         1 KTS       0.067700
     83 H35          8.6730    -0.3870    -1.6770 ho         1 KTS       0.469000
     84 H36          5.6340    -2.2650    -2.5170 h1         1 KTS       0.052700
     85 H37          7.5170    -3.1150    -1.2490 ho         1 KTS       0.523000
     86 H38          4.0520    -0.9480    -1.1910 h1         1 KTS       0.062700
     87 H39          3.2660    -3.2050    -1.6890 h1         1 KTS       0.044700
     88 H40          4.1010    -3.8640    -0.2740 h1         1 KTS       0.044700
     89 H41          1.8920    -3.5510     0.1930 ho         1 KTS       0.519000
     90 H42         -9.0530    -0.8550    -1.0120 h1         1 KTS       0.028700
     91 H43         -8.6100    -0.4030     0.6550 h1         1 KTS       0.028700
     92 H44         -8.3940     1.9900    -0.0570 hc         1 KTS       0.051200
     93 H45         -8.8370     1.5450    -1.7070 hc         1 KTS       0.051200
     94 H46        -11.1020     0.7920    -0.9030 hc         1 KTS       0.033700
     95 H47        -10.6550     1.2400     0.7600 hc         1 KTS       0.033700
     96 H48        -10.7980     2.4940    -0.4910 hc         1 KTS       0.033700
@<TRIPOS>BOND
     1     1     2 1   
     2     1    49 1   
     3     2     3 1   
     4     2    16 1   
     5     2    50 1   
     6     3     4 1   
     7     3    22 1   
     8     3    51 1   
     9     4     5 1   
    10     5     6 1   
    11     5    11 1   
    12     5    52 1   
    13     6     7 1   
    14     6     8 1   
    15     6    53 1   
    16     7    54 1   
    17     8     9 1   
    18     8    10 1   
    19     8    55 1   
    20     9    46 1   
    21    10    11 1   
    22    11    12 1   
    23    11    56 1   
    24    12    13 1   
    25    12    14 1   
    26    12    57 1   
    27    13    58 1   
    28    14    15 1   
    29    14    59 1   
    30    14    60 1   
    31    15    61 1   
    32    16    17 1   
    33    16    23 1   
    34    16    62 1   
    35    17    18 1   
    36    17    19 1   
    37    17    63 1   
    38    18    64 1   
    39    19    20 1   
    40    19    22 1   
    41    19    65 1   
    42    20    21 1   
    43    20    66 1   
    44    20    67 1   
    45    21    68 1   
    46    23    24 1   
    47    24    25 1   
    48    24    33 1   
    49    24    69 1   
    50    25    26 1   
    51    25    27 1   
    52    25    70 1   
    53    26    71 1   
    54    27    28 1   
    55    27    34 1   
    56    27    72 1   
    57    28    29 1   
    58    28    33 1   
    59    28    73 1   
    60    29    30 1   
    61    29    32 1   
    62    29    74 1   
    63    30    31 1   
    64    30    75 1   
    65    30    76 1   
    66    31    77 1   
    67    32    78 1   
    68    34    35 1   
    69    35    36 1   
    70    35    43 1   
    71    35    79 1   
    72    36    37 1   
    73    36    38 1   
    74    36    80 1   
    75    37    81 1   
    76    38    39 1   
    77    38    40 1   
    78    38    82 1   
    79    39    83 1   
    80    40    41 1   
    81    40    42 1   
    82    40    84 1   
    83    41    85 1   
    84    42    43 1   
    85    42    44 1   
    86    42    86 1   
    87    44    45 1   
    88    44    87 1   
    89    44    88 1   
    90    45    89 1   
    91    46    47 1   
    92    46    90 1   
    93    46    91 1   
    94    47    48 1   
    95    47    92 1   
    96    47    93 1   
    97    48    94 1   
    98    48    95 1   
    99    48    96 1   
@<TRIPOS>SUBSTRUCTURE
     1 KTS         1 TEMP              0 ****  ****    0 ROOT
