@<TRIPOS>MOLECULE
KTV
   32    34     1     0     0
SMALL
No Charge or Current Charge


@<TRIPOS>ATOM
      1 C02          1.8810    -1.4680    -0.1810 c          1 KTV       0.602600
      2 C04          4.1350    -0.9670    -0.0240 c          1 KTV       0.584600
      3 C05          3.3600     0.3020     0.1240 ca         1 KTV      -0.088600
      4 C06          2.0040    -0.0050     0.0290 ca         1 KTV      -0.271600
      5 C07          1.0180     0.9720     0.1280 ca         1 KTV       0.411000
      6 C09         -1.4680     1.5130    -0.1600 c3         1 KTV       0.273100
      7 C10         -2.7410     0.6890    -0.3170 ca         1 KTV      -0.077300
      8 C11         -3.4850     0.3030     0.8170 ca         1 KTV      -0.190000
      9 C12         -4.6550    -0.4590     0.6700 ca         1 KTV       0.139100
     10 C14         -5.0900    -0.8430    -0.6080 ca         1 KTV      -0.132000
     11 C15         -4.3530    -0.4660    -1.7430 ca         1 KTV      -0.075000
     12 C16         -3.1810     0.2980    -1.5970 ca         1 KTV      -0.125000
     13 C17          1.4370     2.3050     0.3320 ca         1 KTV      -0.190000
     14 C18          2.8130     2.6270     0.4300 ca         1 KTV      -0.046000
     15 C19          3.7950     1.6190     0.3250 ca         1 KTV      -0.110000
     16 N03          3.1690    -1.9130    -0.1940 ns         1 KTV      -0.487500
     17 N08         -0.3210     0.6200     0.0280 nu         1 KTV      -0.959200
     18 O01          0.8690    -2.1360    -0.3140 o          1 KTV      -0.523000
     19 O13         -5.3730    -0.8300     1.7680 oh         1 KTV      -0.530100
     20 O20          5.3440    -1.1380    -0.0020 o          1 KTV      -0.492000
     21 H1          -1.3220     2.1330    -1.0560 h1         1 KTV       0.047700
     22 H2          -1.5710     2.1890     0.7000 h1         1 KTV       0.047700
     23 H3          -3.1460     0.5990     1.8080 ha         1 KTV       0.114000
     24 H4          -5.9960    -1.4330    -0.7190 ha         1 KTV       0.132000
     25 H5          -4.6880    -0.7640    -2.7340 ha         1 KTV       0.120000
     26 H6          -2.6130     0.5840    -2.4800 ha         1 KTV       0.123000
     27 H7           0.7010     3.0980     0.4180 ha         1 KTV       0.118000
     28 H8           3.1160     3.6600     0.5870 ha         1 KTV       0.117000
     29 H9           4.8550     1.8560     0.3990 ha         1 KTV       0.139000
     30 H10          3.3940    -2.8870    -0.3220 hn         1 KTV       0.344500
     31 H11         -0.4910    -0.3780    -0.1170 hn         1 KTV       0.521000
     32 H12         -4.9220    -0.4780     2.5650 ho         1 KTV       0.466000
@<TRIPOS>BOND
     1     1     4 1   
     2     1    16 1   
     3     1    18 2   
     4     2     3 1   
     5     2    16 1   
     6     2    20 2   
     7     3     4 ar  
     8     3    15 ar  
     9     4     5 ar  
    10     5    13 ar  
    11     5    17 1   
    12     6     7 1   
    13     6    17 1   
    14     6    21 1   
    15     6    22 1   
    16     7     8 ar  
    17     7    12 ar  
    18     8     9 ar  
    19     8    23 1   
    20     9    10 ar  
    21     9    19 1   
    22    10    11 ar  
    23    10    24 1   
    24    11    12 ar  
    25    11    25 1   
    26    12    26 1   
    27    13    14 ar  
    28    13    27 1   
    29    14    15 ar  
    30    14    28 1   
    31    15    29 1   
    32    16    30 1   
    33    17    31 1   
    34    19    32 1   
@<TRIPOS>SUBSTRUCTURE
     1 KTV         1 TEMP              0 ****  ****    0 ROOT
