@<TRIPOS>MOLECULE
KTV
   32    34     1     0     0
SMALL
bcc


@<TRIPOS>ATOM
      1 C02          1.9860    -1.5230    -0.0820 c          1 KTV       0.745100
      2 C04          4.1990    -0.8850    -0.0290 c          1 KTV       0.727100
      3 C05          3.3570     0.3390     0.0390 ca         1 KTV      -0.088600
      4 C06          2.0260    -0.0590     0.0010 ca         1 KTV      -0.271600
      5 C07          0.9750     0.8650     0.0420 ca         1 KTV       0.272600
      6 C09         -1.4330     1.3930     0.1170 c3         1 KTV       0.273100
      7 C10         -2.7200     0.6720    -0.1760 ca         1 KTV      -0.077300
      8 C11         -3.5590     0.2940     0.8640 ca         1 KTV      -0.208000
      9 C12         -4.7460    -0.3880     0.6020 ca         1 KTV       0.139100
     10 C14         -5.0890    -0.6950    -0.7130 ca         1 KTV      -0.150000
     11 C15         -4.2440    -0.3200    -1.7460 ca         1 KTV      -0.093000
     12 C16         -3.0610     0.3590    -1.4880 ca         1 KTV      -0.143000
     13 C17          1.3690     2.2210     0.1440 ca         1 KTV      -0.208000
     14 C18          2.7000     2.5900     0.1790 ca         1 KTV      -0.064000
     15 C19          3.7390     1.6540     0.1250 ca         1 KTV      -0.128000
     16 N03          3.3100    -1.9370    -0.0980 ns         1 KTV      -0.621500
     17 N08         -0.3170     0.4830    -0.0240 nu         1 KTV      -0.765600
     18 O01          1.0270    -2.2590    -0.1240 o          1 KTV      -0.598500
     19 O13         -5.5910    -0.7720     1.5790 oh         1 KTV      -0.491100
     20 O20          5.4030    -0.9690    -0.0280 o          1 KTV      -0.567500
     21 H1          -1.3180     2.2220    -0.5860 h1         1 KTV       0.047700
     22 H2          -1.4650     1.8300     1.1220 h1         1 KTV       0.047700
     23 H3          -3.2860     0.5330     1.8870 ha         1 KTV       0.132000
     24 H4          -6.0120    -1.2220    -0.9200 ha         1 KTV       0.150000
     25 H5          -4.5180    -0.5580    -2.7650 ha         1 KTV       0.138000
     26 H6          -2.4110     0.6510    -2.3040 ha         1 KTV       0.141000
     27 H7           0.6180     2.9970     0.1990 ha         1 KTV       0.136000
     28 H8           2.9370     3.6430     0.2560 ha         1 KTV       0.135000
     29 H9           4.7770     1.9550     0.1560 ha         1 KTV       0.157000
     30 H10          3.5890    -2.9060    -0.1450 hn         1 KTV       0.344500
     31 H11         -0.5130    -0.5030     0.0380 hn         1 KTV       0.465800
     32 H12         -5.2530    -0.5030     2.4400 ho         1 KTV       0.427000
@<TRIPOS>BOND
     1     1     4 1   
     2     1    16 1   
     3     1    18 2   
     4     2     3 1   
     5     2    16 1   
     6     2    20 2   
     7     3     4 ar  
     8     3    15 ar  
     9     4     5 ar  
    10     5    13 ar  
    11     5    17 1   
    12     6     7 1   
    13     6    17 1   
    14     6    21 1   
    15     6    22 1   
    16     7     8 ar  
    17     7    12 ar  
    18     8     9 ar  
    19     8    23 1   
    20     9    10 ar  
    21     9    19 1   
    22    10    11 ar  
    23    10    24 1   
    24    11    12 ar  
    25    11    25 1   
    26    12    26 1   
    27    13    14 ar  
    28    13    27 1   
    29    14    15 ar  
    30    14    28 1   
    31    15    29 1   
    32    16    30 1   
    33    17    31 1   
    34    19    32 1   
@<TRIPOS>SUBSTRUCTURE
     1 KTV         1 TEMP              0 ****  ****    0 ROOT
