@<TRIPOS>MOLECULE
KTW
   20    21     1     0     0
SMALL
abcg2


@<TRIPOS>ATOM
      1 CL         -20.1590   -21.4000    -8.6950 cl         1 KTW      -0.191000
      2 C7         -19.6830   -21.1580    -7.0500 ca         1 KTW       0.161000
      3 C8         -19.2610   -22.2250    -6.2900 ca         1 KTW      -0.110000
      4 C          -18.8760   -22.0250    -4.9580 ca         1 KTW      -0.090000
      5 C3         -19.7340   -19.8680    -6.5080 ca         1 KTW      -0.081800
      6 C4         -20.1360   -18.6360    -7.1080 cc         1 KTW      -0.107200
      7 C5         -20.0420   -17.5880    -6.2550 cd         1 KTW      -0.131000
      8 C6         -20.3830   -16.1830    -6.5580 cf         1 KTW       0.680500
      9 N1         -19.7720   -15.2610    -5.7560 nv         1 KTW      -1.073200
     10 N          -21.2370   -15.9630    -7.4790 n2         1 KTW      -0.810100
     11 S          -19.4750   -18.0510    -4.6780 ss         1 KTW       0.083400
     12 C2         -19.3390   -19.7040    -5.1680 ca         1 KTW      -0.154000
     13 C1         -18.9100   -20.7710    -4.3830 ca         1 KTW      -0.083000
     14 H1         -19.2260   -23.2180    -6.7170 ha         1 KTW       0.131000
     15 H2         -18.5480   -22.8740    -4.3750 ha         1 KTW       0.119000
     16 H3         -20.4670   -18.5320    -8.1300 ha         1 KTW       0.231000
     17 H4         -18.8460   -15.4640    -5.4120 hn         1 KTW       0.462000
     18 H5         -19.8960   -14.2910    -6.0000 hn         1 KTW       0.462000
     19 H6         -21.3580   -14.9660    -7.6360 hn         1 KTW       0.373400
     20 H7         -18.6120   -20.6230    -3.3540 ha         1 KTW       0.126000
@<TRIPOS>BOND
     1     1     2 1   
     2     2     3 ar  
     3     2     5 ar  
     4     3     4 ar  
     5     3    14 1   
     6     4    13 ar  
     7     4    15 1   
     8     5     6 1   
     9     5    12 ar  
    10     6     7 2   
    11     6    16 1   
    12     7     8 1   
    13     7    11 1   
    14     8     9 1   
    15     8    10 2   
    16     9    17 1   
    17     9    18 1   
    18    10    19 1   
    19    11    12 1   
    20    12    13 ar  
    21    13    20 1   
@<TRIPOS>SUBSTRUCTURE
     1 KTW         1 TEMP              0 ****  ****    0 ROOT
