@<TRIPOS>MOLECULE
KTW
   20    21     1     0     0
SMALL
No Charge or Current Charge


@<TRIPOS>ATOM
      1 Cl         -20.4160   -21.4540    -8.6560 cl         1 KTW      -0.191000
      2 C7         -19.7860   -21.1870    -7.0330 ca         1 KTW       0.161000
      3 C8         -19.3280   -22.2780    -6.2690 ca         1 KTW      -0.110000
      4 C          -18.8220   -22.0720    -4.9670 ca         1 KTW      -0.090000
      5 C3         -19.7300   -19.8950    -6.4770 ca         1 KTW      -0.081800
      6 C4         -20.1510   -18.6610    -7.1060 cc         1 KTW      -0.107200
      7 C5         -19.9600   -17.5550    -6.2840 cd         1 KTW      -0.131000
      8 C6         -20.2890   -16.1670    -6.6370 cf         1 KTW       0.680500
      9 N1         -20.0320   -15.2180    -5.7420 nv         1 KTW      -1.073200
     10 N          -20.8100   -15.8620    -7.7560 n2         1 KTW      -0.810100
     11 S          -19.2510   -17.9980    -4.6950 ss         1 KTW       0.083400
     12 C2         -19.2330   -19.6980    -5.2030 ca         1 KTW      -0.154000
     13 C1         -18.7720   -20.7720    -4.4260 ca         1 KTW      -0.083000
     14 H1         -19.3660   -23.2820    -6.6850 ha         1 KTW       0.131000
     15 H2         -18.4700   -22.9180    -4.3810 ha         1 KTW       0.119000
     16 H3         -20.5710   -18.5880    -8.1060 ha         1 KTW       0.231000
     17 H4         -19.4970   -15.4630    -4.9180 hn         1 KTW       0.462000
     18 H5         -19.9900   -14.2480    -6.0330 hn         1 KTW       0.462000
     19 H6         -21.1020   -14.8800    -7.7120 hn         1 KTW       0.373400
     20 H7         -18.3830   -20.6060    -3.4230 ha         1 KTW       0.126000
@<TRIPOS>BOND
     1     1     2 1   
     2     2     3 ar  
     3     2     5 ar  
     4     3     4 ar  
     5     3    14 1   
     6     4    13 ar  
     7     4    15 1   
     8     5     6 1   
     9     5    12 ar  
    10     6     7 2   
    11     6    16 1   
    12     7     8 1   
    13     7    11 1   
    14     8     9 1   
    15     8    10 2   
    16     9    17 1   
    17     9    18 1   
    18    10    19 1   
    19    11    12 1   
    20    12    13 ar  
    21    13    20 1   
@<TRIPOS>SUBSTRUCTURE
     1 KTW         1 TEMP              0 ****  ****    0 ROOT
