@<TRIPOS>MOLECULE
KTY
   87    86     1     0     0
SMALL
No Charge or Current Charge


@<TRIPOS>ATOM
      1 C4          14.7560    20.8540    64.6320 c3         1 KTY      -0.102400
      2 C14         15.7070    11.9080    70.3850 c3         1 KTY      -0.074400
      3 C5          15.0350    20.4430    66.0990 c3         1 KTY      -0.066400
      4 C6          16.4720    20.7580    66.5850 c3         1 KTY      -0.097400
      5 C11         14.7310    14.6460    68.0890 c          1 KTY       0.610100
      6 C7          16.7370    20.4020    68.0640 c3         1 KTY       0.093000
      7 C8          15.4440    18.4090    68.9130 c          1 KTY       0.596100
      8 C9          15.4960    16.8870    69.0610 c3         1 KTY      -0.153400
      9 C10         14.5510    16.1750    68.0560 c3         1 KTY      -0.140400
     10 C12         13.7830    12.3520    68.6960 c3         1 KTY       0.102000
     11 C13         14.2170    11.6980    70.0280 c3         1 KTY      -0.091400
     12 N1          13.7690    23.1670    65.0560 n          1 KTY      -0.277300
     13 N2          16.5630    18.9730    68.3390 ns         1 KTY      -0.510900
     14 C3          14.7980    22.3740    64.3350 c3         1 KTY       0.126000
     15 N3          13.7460    13.8340    68.7190 n          1 KTY      -0.289300
     16 C1          12.0780    22.9540    63.1560 c3         1 KTY      -0.168100
     17 C2          12.5120    23.5480    64.4990 c          1 KTY       0.585100
     18 O1          11.7670    24.3160    65.0980 o          1 KTY      -0.614100
     19 O2          14.4960    19.0740    69.3030 o          1 KTY      -0.602100
     20 O3          15.7180    14.1440    67.5660 o          1 KTY      -0.596100
     21 C15         16.1240    11.1480    71.6700 c3         1 KTY      -0.105400
     22 C16         17.6190    11.2790    72.0300 c3         1 KTY       0.103000
     23 N4          17.9910    12.6730    72.2730 ns         1 KTY      -0.504900
     24 C17         19.0720    13.3120    71.7110 c          1 KTY       0.608100
     25 O4          19.9370    12.7240    71.0780 o          1 KTY      -0.604100
     26 C18         19.1090    14.8210    71.9600 c3         1 KTY      -0.154400
     27 C19         18.4220    15.6040    70.8050 c3         1 KTY      -0.154400
     28 C20         19.3170    15.7540    69.5580 c          1 KTY       0.607100
     29 O5          20.1980    16.6040    69.5390 o          1 KTY      -0.574100
     30 N5          19.0760    14.9290    68.4210 n          1 KTY      -0.298300
     31 C21         19.9320    14.9840    67.2140 c3         1 KTY       0.106000
     32 C22         19.4810    16.0300    66.1680 c3         1 KTY      -0.093400
     33 C23         18.0390    15.8330    65.6460 c3         1 KTY      -0.079400
     34 C24         17.6710    16.7910    64.4910 c3         1 KTY      -0.080400
     35 C25         16.2380    16.5670    63.9650 c3         1 KTY       0.148800
     36 N6          15.9460    17.4280    62.8070 n8         1 KTY      -0.993200
     37 O6          18.2050    13.7780    68.5030 oh         1 KTY      -0.449100
     38 O7          12.6150    14.4150    69.4060 oh         1 KTY      -0.432100
     39 O8          14.2140    23.7710    66.2950 oh         1 KTY      -0.458100
     40 H1          13.7730    20.4630    64.3410 hc         1 KTY       0.045700
     41 H2          15.4870    20.3560    63.9830 hc         1 KTY       0.045700
     42 H3          15.8970    12.9800    70.5110 hc         1 KTY       0.040700
     43 H4          16.3310    11.5670    69.5490 hc         1 KTY       0.040700
     44 H5          14.3070    20.9240    66.7620 hc         1 KTY       0.051200
     45 H6          14.8610    19.3630    66.1850 hc         1 KTY       0.051200
     46 H7          17.1930    20.2230    65.9550 hc         1 KTY       0.043700
     47 H8          16.6770    21.8280    66.4590 hc         1 KTY       0.043700
     48 H9          17.7680    20.6790    68.3200 h1         1 KTY       0.060200
     49 H10         16.0690    20.9890    68.7090 h1         1 KTY       0.060200
     50 H11         16.5170    16.5410    68.8720 hc         1 KTY       0.070200
     51 H12         15.1920    16.6170    70.0790 hc         1 KTY       0.070200
     52 H13         13.5200    16.4610    68.2870 hc         1 KTY       0.075700
     53 H14         14.8020    16.5220    67.0470 hc         1 KTY       0.075700
     54 H15         12.7750    11.9940    68.4500 h1         1 KTY       0.063700
     55 H16         14.4440    12.0070    67.8910 h1         1 KTY       0.063700
     56 H17         14.0230    10.6210    69.9550 hc         1 KTY       0.050200
     57 H18         13.5860    12.0770    70.8410 hc         1 KTY       0.050200
     58 H19         17.3020    18.3390    68.0610 hn         1 KTY       0.314500
     59 H20         15.7890    22.7660    64.5970 h1         1 KTY       0.060200
     60 H21         14.6900    22.5270    63.2550 h1         1 KTY       0.060200
     61 H22         11.0450    23.2160    62.8980 hc         1 KTY       0.065700
     62 H23         12.7680    23.2970    62.3770 hc         1 KTY       0.065700
     63 H24         12.2320    21.8700    63.1600 hc         1 KTY       0.065700
     64 H25         15.8920    10.0830    71.5470 hc         1 KTY       0.051700
     65 H26         15.5200    11.5050    72.5130 hc         1 KTY       0.051700
     66 H27         18.2230    10.8660    71.2110 h1         1 KTY       0.057700
     67 H28         17.8300    10.6960    72.9360 h1         1 KTY       0.057700
     68 H29         17.3450    13.2520    72.7960 hn         1 KTY       0.307500
     69 H30         20.1470    15.1560    72.0660 hc         1 KTY       0.082200
     70 H31         18.5440    15.0440    72.8730 hc         1 KTY       0.082200
     71 H32         18.1960    16.6120    71.1730 hc         1 KTY       0.068200
     72 H33         17.4860    15.0920    70.5570 hc         1 KTY       0.068200
     73 H34         19.9390    13.9930    66.7410 h1         1 KTY       0.066700
     74 H35         20.9660    15.1990    67.5140 h1         1 KTY       0.066700
     75 H36         20.1780    15.9900    65.3220 hc         1 KTY       0.051700
     76 H37         19.5730    17.0330    66.6030 hc         1 KTY       0.051700
     77 H38         17.3350    15.9890    66.4710 hc         1 KTY       0.039700
     78 H39         17.9170    14.7960    65.3070 hc         1 KTY       0.039700
     79 H40         18.3820    16.6480    63.6680 hc         1 KTY       0.048200
     80 H41         17.7750    17.8280    64.8330 hc         1 KTY       0.048200
     81 H42         15.5120    16.7860    64.7600 h1         1 KTY       0.024200
     82 H43         16.1160    15.5190    63.6590 h1         1 KTY       0.024200
     83 H44         14.9680    17.2910    62.5260 hn         1 KTY       0.392500
     84 H45         15.9790    18.4090    63.1040 hn         1 KTY       0.392500
     85 H47         17.3400    14.0420    68.0860 ho         1 KTY       0.449000
     86 H48         11.9010    14.4790    68.7310 ho         1 KTY       0.445000
     87 H49         13.8380    23.2060    67.0080 ho         1 KTY       0.477000
@<TRIPOS>BOND
     1     1     3 1   
     2     1    14 1   
     3     1    40 1   
     4     1    41 1   
     5     2    11 1   
     6     2    21 1   
     7     2    42 1   
     8     2    43 1   
     9     3     4 1   
    10     3    44 1   
    11     3    45 1   
    12     4     6 1   
    13     4    46 1   
    14     4    47 1   
    15     5     9 1   
    16     5    15 1   
    17     5    20 2   
    18     6    13 1   
    19     6    48 1   
    20     6    49 1   
    21     7     8 1   
    22     7    13 1   
    23     7    19 2   
    24     8     9 1   
    25     8    50 1   
    26     8    51 1   
    27     9    52 1   
    28     9    53 1   
    29    10    11 1   
    30    10    15 1   
    31    10    54 1   
    32    10    55 1   
    33    11    56 1   
    34    11    57 1   
    35    12    14 1   
    36    12    17 1   
    37    12    39 1   
    38    13    58 1   
    39    14    59 1   
    40    14    60 1   
    41    15    38 1   
    42    16    17 1   
    43    16    61 1   
    44    16    62 1   
    45    16    63 1   
    46    17    18 2   
    47    21    22 1   
    48    21    64 1   
    49    21    65 1   
    50    22    23 1   
    51    22    66 1   
    52    22    67 1   
    53    23    24 1   
    54    23    68 1   
    55    24    25 2   
    56    24    26 1   
    57    26    27 1   
    58    26    69 1   
    59    26    70 1   
    60    27    28 1   
    61    27    71 1   
    62    27    72 1   
    63    28    29 2   
    64    28    30 1   
    65    30    31 1   
    66    30    37 1   
    67    31    32 1   
    68    31    73 1   
    69    31    74 1   
    70    32    33 1   
    71    32    75 1   
    72    32    76 1   
    73    33    34 1   
    74    33    77 1   
    75    33    78 1   
    76    34    35 1   
    77    34    79 1   
    78    34    80 1   
    79    35    36 1   
    80    35    81 1   
    81    35    82 1   
    82    36    83 1   
    83    36    84 1   
    84    37    85 1   
    85    38    86 1   
    86    39    87 1   
@<TRIPOS>SUBSTRUCTURE
     1 KTY         1 TEMP              0 ****  ****    0 ROOT
