@<TRIPOS>MOLECULE
KTY
   87    86     1     0     0
SMALL
abcg2


@<TRIPOS>ATOM
      1 C4          13.3060    19.7010    64.5590 c3         1 KTY      -0.102400
      2 C14         14.8900    12.2660    70.4850 c3         1 KTY      -0.074400
      3 C5          14.1700    19.4700    65.7950 c3         1 KTY      -0.066400
      4 C6          15.6550    19.3330    65.4900 c3         1 KTY      -0.097400
      5 C11         13.0300    14.9170    69.0930 c          1 KTY       0.610100
      6 C7          16.5060    19.0850    66.7300 c3         1 KTY       0.093000
      7 C8          15.5130    17.7790    68.5840 c          1 KTY       0.596100
      8 C9          15.0640    16.3870    68.9800 c3         1 KTY      -0.153400
      9 C10         13.5290    16.3410    68.9860 c3         1 KTY      -0.140400
     10 C12         12.4610    13.0470    70.6220 c3         1 KTY       0.102000
     11 C13         13.5840    12.2430    71.2670 c3         1 KTY      -0.091400
     12 N1          13.3870    22.2020    64.5550 n          1 KTY      -0.277300
     13 N2          16.1500    17.8550    67.4030 ns         1 KTY      -0.510900
     14 C3          13.5700    20.9910    63.7880 c3         1 KTY       0.126000
     15 N3          12.8150    14.4200    70.3320 n          1 KTY      -0.289300
     16 C1          11.0160    22.4270    64.0810 c3         1 KTY      -0.168100
     17 C2          12.2420    22.8340    64.8530 c          1 KTY       0.585100
     18 O1          12.2370    23.7160    65.7110 o          1 KTY      -0.614100
     19 O2          15.2690    18.7500    69.2880 o          1 KTY      -0.602100
     20 O3          12.8370    14.2410    68.0920 o          1 KTY      -0.596100
     21 C15         15.9170    11.2880    71.0430 c3         1 KTY      -0.105400
     22 C16         17.2800    11.3930    70.3650 c3         1 KTY       0.103000
     23 N4          17.9290    12.6660    70.6030 ns         1 KTY      -0.504900
     24 C17         18.6720    12.9210    71.6940 c          1 KTY       0.608100
     25 O4          18.9760    12.0540    72.5030 o          1 KTY      -0.604100
     26 C18         19.1020    14.3580    71.9180 c3         1 KTY      -0.154400
     27 C19         19.0100    15.3100    70.7380 c3         1 KTY      -0.154400
     28 C20         19.9520    14.9220    69.6130 c          1 KTY       0.607100
     29 O5          20.9300    14.2160    69.8090 o          1 KTY      -0.574100
     30 N5          19.6860    15.4410    68.3930 n          1 KTY      -0.298300
     31 C21         20.4470    15.1680    67.1890 c3         1 KTY       0.106000
     32 C22         20.7500    16.4250    66.3710 c3         1 KTY      -0.093400
     33 C23         19.6950    16.7830    65.3280 c3         1 KTY      -0.079400
     34 C24         19.9330    18.1450    64.6920 c3         1 KTY      -0.080400
     35 C25         18.9360    18.4470    63.5840 c3         1 KTY       0.148800
     36 N6          19.0580    19.8220    63.1210 n8         1 KTY      -0.993200
     37 O6          18.4970    16.0930    68.2050 oh         1 KTY      -0.449100
     38 O7          13.1990    15.1650    71.4160 oh         1 KTY      -0.432100
     39 O8          14.4970    22.5670    65.2880 oh         1 KTY      -0.458100
     40 H1          12.2530    19.6720    64.8500 hc         1 KTY       0.045700
     41 H2          13.4490    18.8740    63.8580 hc         1 KTY       0.045700
     42 H3          15.2980    13.2810    70.4980 hc         1 KTY       0.040700
     43 H4          14.7000    12.0260    69.4330 hc         1 KTY       0.040700
     44 H5          14.0100    20.2670    66.5260 hc         1 KTY       0.051200
     45 H6          13.8170    18.5520    66.2730 hc         1 KTY       0.051200
     46 H7          15.8080    18.5150    64.7780 hc         1 KTY       0.043700
     47 H8          16.0380    20.2330    65.0050 hc         1 KTY       0.043700
     48 H9          17.5620    19.0440    66.4520 h1         1 KTY       0.060200
     49 H10         16.3930    19.9060    67.4370 h1         1 KTY       0.060200
     50 H11         15.4560    15.6340    68.2950 hc         1 KTY       0.070200
     51 H12         15.4550    16.1600    69.9730 hc         1 KTY       0.070200
     52 H13         13.1410    16.9860    69.7710 hc         1 KTY       0.075700
     53 H14         13.1570    16.7200    68.0320 hc         1 KTY       0.075700
     54 H15         11.5780    13.0420    71.2670 h1         1 KTY       0.063700
     55 H16         12.1690    12.5910    69.6790 h1         1 KTY       0.063700
     56 H17         13.2230    11.2150    71.3590 hc         1 KTY       0.050200
     57 H18         13.7610    12.5930    72.2880 hc         1 KTY       0.050200
     58 H19         16.2670    17.0050    66.8760 hn         1 KTY       0.314500
     59 H20         14.5820    21.0150    63.3820 h1         1 KTY       0.060200
     60 H21         12.9040    21.0410    62.9260 h1         1 KTY       0.060200
     61 H22         10.1760    23.0330    64.4100 hc         1 KTY       0.065700
     62 H23         11.1510    22.5770    63.0090 hc         1 KTY       0.065700
     63 H24         10.7640    21.3780    64.2380 hc         1 KTY       0.065700
     64 H25         15.5490    10.2650    70.9220 hc         1 KTY       0.051700
     65 H26         16.0410    11.4460    72.1190 hc         1 KTY       0.051700
     66 H27         17.1710    11.2720    69.2860 h1         1 KTY       0.057700
     67 H28         17.9360    10.5940    70.7080 h1         1 KTY       0.057700
     68 H29         17.6490    13.4280    70.0090 hn         1 KTY       0.307500
     69 H30         20.1140    14.3340    72.3200 hc         1 KTY       0.082200
     70 H31         18.4680    14.7450    72.7210 hc         1 KTY       0.082200
     71 H32         19.3000    16.3110    71.0750 hc         1 KTY       0.068200
     72 H33         17.9800    15.4240    70.3990 hc         1 KTY       0.068200
     73 H34         19.9160    14.4310    66.5750 h1         1 KTY       0.066700
     74 H35         21.3720    14.7000    67.5150 h1         1 KTY       0.066700
     75 H36         21.7020    16.2700    65.8590 hc         1 KTY       0.051700
     76 H37         20.9160    17.2660    67.0530 hc         1 KTY       0.051700
     77 H38         18.6950    16.7710    65.7700 hc         1 KTY       0.039700
     78 H39         19.6870    16.0090    64.5530 hc         1 KTY       0.039700
     79 H40         20.9510    18.2090    64.2960 hc         1 KTY       0.048200
     80 H41         19.8550    18.9160    65.4690 hc         1 KTY       0.048200
     81 H42         17.9250    18.1970    63.9410 h1         1 KTY       0.024200
     82 H43         19.1300    17.7810    62.7390 h1         1 KTY       0.024200
     83 H44         18.4150    19.9790    62.3560 hn         1 KTY       0.392500
     84 H45         18.7560    20.4460    63.8610 hn         1 KTY       0.392500
     85 H47         18.6750    17.0400    68.2950 ho         1 KTY       0.449000
     86 H48         12.3880    15.5440    71.7860 ho         1 KTY       0.445000
     87 H49         14.1330    23.1720    65.9600 ho         1 KTY       0.477000
@<TRIPOS>BOND
     1     1     3 1   
     2     1    14 1   
     3     1    40 1   
     4     1    41 1   
     5     2    11 1   
     6     2    21 1   
     7     2    42 1   
     8     2    43 1   
     9     3     4 1   
    10     3    44 1   
    11     3    45 1   
    12     4     6 1   
    13     4    46 1   
    14     4    47 1   
    15     5     9 1   
    16     5    15 1   
    17     5    20 2   
    18     6    13 1   
    19     6    48 1   
    20     6    49 1   
    21     7     8 1   
    22     7    13 1   
    23     7    19 2   
    24     8     9 1   
    25     8    50 1   
    26     8    51 1   
    27     9    52 1   
    28     9    53 1   
    29    10    11 1   
    30    10    15 1   
    31    10    54 1   
    32    10    55 1   
    33    11    56 1   
    34    11    57 1   
    35    12    14 1   
    36    12    17 1   
    37    12    39 1   
    38    13    58 1   
    39    14    59 1   
    40    14    60 1   
    41    15    38 1   
    42    16    17 1   
    43    16    61 1   
    44    16    62 1   
    45    16    63 1   
    46    17    18 2   
    47    21    22 1   
    48    21    64 1   
    49    21    65 1   
    50    22    23 1   
    51    22    66 1   
    52    22    67 1   
    53    23    24 1   
    54    23    68 1   
    55    24    25 2   
    56    24    26 1   
    57    26    27 1   
    58    26    69 1   
    59    26    70 1   
    60    27    28 1   
    61    27    71 1   
    62    27    72 1   
    63    28    29 2   
    64    28    30 1   
    65    30    31 1   
    66    30    37 1   
    67    31    32 1   
    68    31    73 1   
    69    31    74 1   
    70    32    33 1   
    71    32    75 1   
    72    32    76 1   
    73    33    34 1   
    74    33    77 1   
    75    33    78 1   
    76    34    35 1   
    77    34    79 1   
    78    34    80 1   
    79    35    36 1   
    80    35    81 1   
    81    35    82 1   
    82    36    83 1   
    83    36    84 1   
    84    37    85 1   
    85    38    86 1   
    86    39    87 1   
@<TRIPOS>SUBSTRUCTURE
     1 KTY         1 TEMP              0 ****  ****    0 ROOT
