@<TRIPOS>MOLECULE
KTZ
   44    47     1     0     0
SMALL
abcg2


@<TRIPOS>ATOM
      1 CAL         -1.4750    -1.8970     0.9720 ca         1 KTZ      -0.097500
      2 CAH         -1.9430    -3.2020     0.9220 ca         1 KTZ      -0.118000
      3 CAE         -1.5640    -4.0410    -0.1180 ca         1 KTZ      -0.113000
      4 CAI         -0.7160    -3.5640    -1.1090 ca         1 KTZ      -0.118000
      5 CAM         -0.2510    -2.2580    -1.0600 ca         1 KTZ      -0.097500
      6 CAS         -0.6230    -1.4080    -0.0180 ca         1 KTZ      -0.024800
      7 CAV         -0.1180    -0.0290     0.0200 cc         1 KTZ      -0.019400
      8 C5           1.2530     0.4070    -0.0460 ca         1 KTZ      -0.266800
      9 C6           2.5530    -0.1560    -0.1070 ca         1 KTZ       0.457900
     10 NAY          2.8060    -1.4810     0.0700 nh         1 KTZ      -0.767300
     11 CAB          4.1080    -1.9990    -0.2860 c3         1 KTZ       0.204600
     12 CAA          2.1580    -2.2230     1.1340 c3         1 KTZ       0.204600
     13 N1           3.5880     0.6330    -0.3740 nb         1 KTZ      -0.345000
     14 C2           3.4070     1.9570    -0.4780 ca         1 KTZ       0.417900
     15 NAC          4.5240     2.6910    -0.7240 nv         1 KTZ      -1.049900
     16 N3           2.2700     2.6170    -0.3030 nb         1 KTZ      -0.295000
     17 C4           1.2320     1.8090    -0.1080 ca         1 KTZ       0.185500
     18 NAP         -0.0530     2.2090     0.0020 na         1 KTZ      -0.317400
     19 CAT         -0.8880     1.1090     0.0480 cd         1 KTZ      -0.021300
     20 CAR         -2.3370     1.2920     0.0910 ca         1 KTZ      -0.035800
     21 CAJ         -2.8910     2.3410     0.8310 ca         1 KTZ      -0.097000
     22 CAF         -4.2630     2.5370     0.8670 ca         1 KTZ      -0.111000
     23 CAD         -5.1090     1.6860     0.1680 ca         1 KTZ      -0.105000
     24 CAG         -4.5690     0.6430    -0.5750 ca         1 KTZ      -0.111000
     25 CAK         -3.1970     0.4500    -0.6190 ca         1 KTZ      -0.097000
     26 HAL         -1.7670    -1.2530     1.7920 ha         1 KTZ       0.121000
     27 HAH         -2.5990    -3.5670     1.7010 ha         1 KTZ       0.112000
     28 HAE         -1.9260    -5.0600    -0.1560 ha         1 KTZ       0.111000
     29 HAI         -0.4170    -4.2100    -1.9250 ha         1 KTZ       0.112000
     30 HAM          0.4090    -1.8930    -1.8370 ha         1 KTZ       0.121000
     31 HAB1         4.8650    -1.8070     0.4810 h1         1 KTZ       0.042033
     32 HAB2         4.0240    -3.0780    -0.4140 h1         1 KTZ       0.042033
     33 HAB3         4.4530    -1.5700    -1.2230 h1         1 KTZ       0.042033
     34 HAA1         1.3430    -1.6560     1.5690 h1         1 KTZ       0.042033
     35 HAA2         1.7610    -3.1740     0.7780 h1         1 KTZ       0.042033
     36 HAA3         2.8790    -2.4260     1.9330 h1         1 KTZ       0.042033
     37 HAC1         5.3190     2.2050    -1.0990 hn         1 KTZ       0.483000
     38 HAC2         4.3940     3.6320    -1.0520 hn         1 KTZ       0.483000
     39 HAP         -0.3600     3.1630    -0.1100 hn         1 KTZ       0.361000
     40 HAJ         -2.2470     3.0020     1.3990 ha         1 KTZ       0.119000
     41 HAK         -2.7910    -0.3520    -1.2200 ha         1 KTZ       0.119000
     42 HAF         -4.6730     3.3530     1.4470 ha         1 KTZ       0.114500
     43 HAD         -6.1800     1.8370     0.1970 ha         1 KTZ       0.114000
     44 HAG         -5.2180    -0.0180    -1.1340 ha         1 KTZ       0.114500
@<TRIPOS>BOND
     1     1     2 ar  
     2     1     6 ar  
     3     1    26 1   
     4     2     3 ar  
     5     2    27 1   
     6     3     4 ar  
     7     3    28 1   
     8     4     5 ar  
     9     4    29 1   
    10     5     6 ar  
    11     5    30 1   
    12     6     7 1   
    13     7     8 1   
    14     7    19 2   
    15     8     9 ar  
    16     8    17 ar  
    17     9    10 1   
    18     9    13 ar  
    19    10    11 1   
    20    10    12 1   
    21    11    31 1   
    22    11    32 1   
    23    11    33 1   
    24    12    34 1   
    25    12    35 1   
    26    12    36 1   
    27    13    14 ar  
    28    14    15 1   
    29    14    16 ar  
    30    15    37 1   
    31    15    38 1   
    32    16    17 ar  
    33    17    18 1   
    34    18    19 1   
    35    18    39 1   
    36    19    20 1   
    37    20    21 ar  
    38    20    25 ar  
    39    21    22 ar  
    40    21    40 1   
    41    22    23 ar  
    42    22    42 1   
    43    23    24 ar  
    44    23    43 1   
    45    24    25 ar  
    46    24    44 1   
    47    25    41 1   
@<TRIPOS>SUBSTRUCTURE
     1 KTZ         1 TEMP              0 ****  ****    0 ROOT
