@<TRIPOS>MOLECULE
KTZ
   44    47     1     0     0
SMALL
No Charge or Current Charge


@<TRIPOS>ATOM
      1 CAL         -1.2050    -1.8210     1.1530 ca         1 KTZ      -0.097500
      2 CAH         -1.6540    -3.1530     1.1610 ca         1 KTZ      -0.118000
      3 CAE         -1.4230    -3.9790     0.0490 ca         1 KTZ      -0.113000
      4 CAI         -0.7410    -3.4740    -1.0720 ca         1 KTZ      -0.118000
      5 CAM         -0.2920    -2.1420    -1.0790 ca         1 KTZ      -0.097500
      6 CAS         -0.5240    -1.3080     0.0310 ca         1 KTZ      -0.024800
      7 CAV         -0.0520     0.0720     0.0250 cc         1 KTZ      -0.019400
      8 C5           1.3050     0.5480     0.0000 ca         1 KTZ      -0.266800
      9 C6           2.5550    -0.1020    -0.0480 ca         1 KTZ       0.457900
     10 NAY          2.7230    -1.5000    -0.0130 nh         1 KTZ      -0.767300
     11 CAB          3.6980    -2.1660    -0.9020 c3         1 KTZ       0.204600
     12 CAA          2.2640    -2.2680     1.1620 c3         1 KTZ       0.204600
     13 N1           3.6840     0.6320    -0.1160 nb         1 KTZ      -0.345000
     14 C2           3.5230     1.9610    -0.1070 ca         1 KTZ       0.417900
     15 NAC          4.6590     2.6900    -0.1720 nv         1 KTZ      -1.049900
     16 N3           2.3770     2.6560    -0.0390 nb         1 KTZ      -0.295000
     17 C4           1.2560     1.9170     0.0160 ca         1 KTZ       0.185500
     18 NAP         -0.0610     2.3340     0.0850 na         1 KTZ      -0.317400
     19 CAT         -0.8940     1.1870     0.0820 cd         1 KTZ      -0.021300
     20 CAR         -2.3790     1.2840     0.0280 ca         1 KTZ      -0.035800
     21 CAJ         -3.0030     2.5020     0.3880 ca         1 KTZ      -0.097000
     22 CAF         -4.4010     2.6430     0.3510 ca         1 KTZ      -0.111000
     23 CAD         -5.2060     1.5710    -0.0570 ca         1 KTZ      -0.105000
     24 CAG         -4.6080     0.3610    -0.4360 ca         1 KTZ      -0.111000
     25 CAK         -3.2090     0.2190    -0.3980 ca         1 KTZ      -0.097000
     26 HAL         -1.3850    -1.1830     2.0160 ha         1 KTZ       0.121000
     27 HAH         -2.1810    -3.5430     2.0290 ha         1 KTZ       0.112000
     28 HAE         -1.7700    -5.0100     0.0550 ha         1 KTZ       0.111000
     29 HAI         -0.5580    -4.1140    -1.9320 ha         1 KTZ       0.112000
     30 HAM          0.2410    -1.7540    -1.9440 ha         1 KTZ       0.121000
     31 HAB1         4.7030    -2.1430    -0.4610 h1         1 KTZ       0.042033
     32 HAB2         3.4120    -3.2130    -1.0690 h1         1 KTZ       0.042033
     33 HAB3         3.7290    -1.6680    -1.8810 h1         1 KTZ       0.042033
     34 HAA1         1.6760    -1.6340     1.8390 h1         1 KTZ       0.042033
     35 HAA2         1.6330    -3.1110     0.8490 h1         1 KTZ       0.042033
     36 HAA3         3.1210    -2.6610     1.7250 h1         1 KTZ       0.042033
     37 HAC1         5.5150     2.2170    -0.4460 hn         1 KTZ       0.483000
     38 HAC2         4.5870     3.6790    -0.3970 hn         1 KTZ       0.483000
     39 HAP         -0.3690     3.2980     0.0820 hn         1 KTZ       0.361000
     40 HAJ         -2.4090     3.3490     0.7220 ha         1 KTZ       0.119000
     41 HAK         -2.7930    -0.7200    -0.7410 ha         1 KTZ       0.119000
     42 HAF         -4.8590     3.5860     0.6430 ha         1 KTZ       0.114500
     43 HAD         -6.2880     1.6800    -0.0880 ha         1 KTZ       0.114000
     44 HAG         -5.2270    -0.4690    -0.7700 ha         1 KTZ       0.114500
@<TRIPOS>BOND
     1     1     2 ar  
     2     1     6 ar  
     3     1    26 1   
     4     2     3 ar  
     5     2    27 1   
     6     3     4 ar  
     7     3    28 1   
     8     4     5 ar  
     9     4    29 1   
    10     5     6 ar  
    11     5    30 1   
    12     6     7 1   
    13     7     8 1   
    14     7    19 2   
    15     8     9 ar  
    16     8    17 ar  
    17     9    10 1   
    18     9    13 ar  
    19    10    11 1   
    20    10    12 1   
    21    11    31 1   
    22    11    32 1   
    23    11    33 1   
    24    12    34 1   
    25    12    35 1   
    26    12    36 1   
    27    13    14 ar  
    28    14    15 1   
    29    14    16 ar  
    30    15    37 1   
    31    15    38 1   
    32    16    17 ar  
    33    17    18 1   
    34    18    19 1   
    35    18    39 1   
    36    19    20 1   
    37    20    21 ar  
    38    20    25 ar  
    39    21    22 ar  
    40    21    40 1   
    41    22    23 ar  
    42    22    42 1   
    43    23    24 ar  
    44    23    43 1   
    45    24    25 ar  
    46    24    44 1   
    47    25    41 1   
@<TRIPOS>SUBSTRUCTURE
     1 KTZ         1 TEMP              0 ****  ****    0 ROOT
