@<TRIPOS>MOLECULE
KU0
   58    61     1     0     0
SMALL
bcc


@<TRIPOS>ATOM
      1 C1          -5.8570    -0.5530     0.7870 ca         1 KU0      -0.072400
      2 C10          6.6240    -1.0910    -0.3690 ca         1 KU0      -0.270500
      3 C11          7.1280    -0.9840    -1.6580 ca         1 KU0      -0.034000
      4 C12          7.5290    -2.1370    -2.3170 ca         1 KU0      -0.146500
      5 C13          7.4240    -3.3710    -1.6890 ca         1 KU0      -0.073000
      6 C14          6.9190    -3.4620    -0.3980 ca         1 KU0      -0.146500
      7 C15          6.5160    -2.3180     0.2740 ca         1 KU0      -0.034000
      8 C16         -0.7910     3.6260     0.4280 cc         1 KU0       0.054900
      9 C17         -2.1710     3.3760     0.0180 c          1 KU0       0.651700
     10 C18         -1.8750     0.0260    -2.8280 c5         1 KU0      -0.088400
     11 C19         -2.8950    -1.0440    -3.1950 c5         1 KU0      -0.095400
     12 C2          -4.7460    -1.3660     0.6430 ca         1 KU0      -0.102600
     13 C20         -3.9130    -0.9600    -2.0680 c5         1 KU0       0.104000
     14 C21         -4.9330    -2.7270     0.8310 ca         1 KU0      -0.072400
     15 C22         -6.1920    -3.2120     1.1540 ca         1 KU0       0.420200
     16 C23         -7.0850    -1.1100     1.1140 ca         1 KU0       0.420200
     17 C3          -3.3800    -0.8020     0.3710 c          1 KU0       0.686700
     18 C4          -1.7660    -0.1000    -1.3010 c5         1 KU0       0.075400
     19 C5          -1.4050     1.1990    -0.6390 cc         1 KU0       0.470900
     20 C6           0.1340     2.6400     0.2620 cd         1 KU0       0.024400
     21 C7           1.5680     2.8050     0.6540 c          1 KU0       0.695300
     22 C8           3.7200     1.6730     0.7740 c3         1 KU0       0.138000
     23 C9           4.3480     0.4620     0.0990 c3         1 KU0      -0.217600
     24 N1          -3.0870    -0.5840    -0.9150 n          1 KU0      -0.488800
     25 N2          -0.1990     1.4230    -0.2720 nd         1 KU0      -0.611300
     26 N3           2.3180     1.7160     0.4350 ns         1 KU0      -0.564900
     27 N4          -2.3790     2.1370    -0.5180 ns         1 KU0      -0.451400
     28 N5          -7.2360    -2.4110     1.2930 nb         1 KU0      -0.640000
     29 O1          -2.6250    -0.5570     1.2940 o          1 KU0      -0.546100
     30 O2           2.0070     3.8420     1.1280 o          1 KU0      -0.577100
     31 O3           6.2440     0.1640     1.9150 o          1 KU0      -0.585800
     32 O4           6.7530     1.5280    -0.1340 o          1 KU0      -0.585800
     33 O6          -3.0520     4.2110     0.1450 o          1 KU0      -0.629500
     34 S1           6.0970     0.3730     0.4760 sy         1 KU0       1.085300
     35 CL1         -5.7240     1.1500     0.5530 cl         1 KU0      -0.066900
     36 CL2         -3.6120    -3.8110     0.6330 cl         1 KU0      -0.066900
     37 H1           7.2140    -0.0230    -2.1460 ha         1 KU0       0.156500
     38 H2           7.9280    -2.0680    -3.3200 ha         1 KU0       0.140000
     39 H3           7.7370    -4.2680    -2.2070 ha         1 KU0       0.136000
     40 H4           6.8390    -4.4240     0.0900 ha         1 KU0       0.140000
     41 H5           6.1290    -2.3890     1.2820 ha         1 KU0       0.156500
     42 H6          -0.9060    -0.1130    -3.3040 hc         1 KU0       0.066700
     43 H7          -2.2480     1.0150    -3.1060 hc         1 KU0       0.066700
     44 H8          -3.3500    -0.8770    -4.1700 hc         1 KU0       0.064700
     45 H9          -2.4270    -2.0300    -3.2030 hc         1 KU0       0.064700
     46 H10         -4.6670    -0.1930    -2.2610 h1         1 KU0       0.057700
     47 H11         -4.4240    -1.9060    -1.8990 h1         1 KU0       0.057700
     48 H12         -6.3500    -4.2740     1.2990 h4         1 KU0       0.045600
     49 H13         -7.9590    -0.4800     1.2300 h4         1 KU0       0.045600
     50 H14         -0.9970    -0.8260    -1.0280 h1         1 KU0       0.097700
     51 H15          3.8560     1.6130     1.8570 h1         1 KU0       0.070200
     52 H16          4.2050     2.5880     0.4310 h1         1 KU0       0.070200
     53 H17          3.9000    -0.4710     0.4450 h1         1 KU0       0.098700
     54 H18          4.2550     0.5160    -0.9880 h1         1 KU0       0.098700
     55 H19          1.8560     0.8880     0.0880 hn         1 KU0       0.341500
     56 H20         -3.3220     1.9230    -0.8220 hn         1 KU0       0.339500
     57 H21         -1.3850     5.3190     0.9640 ho         1 KU0       0.453000
     58 O5          -0.5510     4.8240     0.9430 oh         1 KU0      -0.428100
@<TRIPOS>BOND
     1     1    12 ar  
     2     1    16 ar  
     3     1    35 1   
     4     2     3 ar  
     5     2     7 ar  
     6     2    34 1   
     7     3     4 ar  
     8     3    37 1   
     9     4     5 ar  
    10     4    38 1   
    11     5     6 ar  
    12     5    39 1   
    13     6     7 ar  
    14     6    40 1   
    15     7    41 1   
    16     8     9 1   
    17     8    20 2   
    18     8    58 1   
    19     9    27 1   
    20     9    33 2   
    21    10    11 1   
    22    10    18 1   
    23    10    42 1   
    24    10    43 1   
    25    11    13 1   
    26    11    44 1   
    27    11    45 1   
    28    12    14 ar  
    29    12    17 1   
    30    13    24 1   
    31    13    46 1   
    32    13    47 1   
    33    14    15 ar  
    34    14    36 1   
    35    15    28 ar  
    36    15    48 1   
    37    16    28 ar  
    38    16    49 1   
    39    17    24 1   
    40    17    29 2   
    41    18    19 1   
    42    18    24 1   
    43    18    50 1   
    44    19    25 2   
    45    19    27 1   
    46    20    21 1   
    47    20    25 1   
    48    21    26 1   
    49    21    30 2   
    50    22    23 1   
    51    22    26 1   
    52    22    51 1   
    53    22    52 1   
    54    23    34 1   
    55    23    53 1   
    56    23    54 1   
    57    26    55 1   
    58    27    56 1   
    59    31    34 2   
    60    32    34 2   
    61    57    58 1   
@<TRIPOS>SUBSTRUCTURE
     1 KU0         1 TEMP              0 ****  ****    0 ROOT
