@<TRIPOS>MOLECULE
KU0
   58    61     1     0     0
SMALL
No Charge or Current Charge


@<TRIPOS>ATOM
      1 C1          -6.0440    -0.5810     0.3400 ca         1 KU0       0.084500
      2 C10          6.7760    -1.0630    -0.4660 ca         1 KU0      -0.270500
      3 C11          7.1100    -1.1270    -1.8360 ca         1 KU0      -0.016000
      4 C12          7.4500    -2.3600    -2.4190 ca         1 KU0      -0.128500
      5 C13          7.4580    -3.5310    -1.6420 ca         1 KU0      -0.055000
      6 C14          7.1230    -3.4700    -0.2790 ca         1 KU0      -0.128500
      7 C15          6.7810    -2.2410     0.3110 ca         1 KU0      -0.016000
      8 C16         -0.7890     3.5270     0.7410 cc         1 KU0       0.054900
      9 C17         -2.2040     3.2890     0.3950 c          1 KU0       0.509200
     10 C18         -1.9770     0.1790    -2.7900 c5         1 KU0      -0.088400
     11 C19         -2.7910    -1.0640    -3.2240 c5         1 KU0      -0.095400
     12 C2          -4.9480    -1.4380     0.5890 ca         1 KU0      -0.102600
     13 C20         -3.8860    -1.1270    -2.1300 c5         1 KU0       0.104000
     14 C21         -5.2270    -2.7340     1.0730 ca         1 KU0       0.084500
     15 C22         -6.5700    -3.1240     1.2650 ca         1 KU0       0.354900
     16 C23         -7.3530    -1.0570     0.5660 ca         1 KU0       0.354900
     17 C3          -3.5360    -0.9840     0.3780 c          1 KU0       0.619700
     18 C4          -1.8170    -0.0740    -1.2630 c5         1 KU0       0.075400
     19 C5          -1.4300     1.2120    -0.5410 cc         1 KU0       0.470900
     20 C6           0.2260     2.6160     0.4310 cd         1 KU0       0.024400
     21 C7           1.6640     2.9110     0.8040 c          1 KU0       0.628300
     22 C8           3.9460     1.8720     0.6230 c3         1 KU0       0.138000
     23 C9           4.5430     0.5830     0.0450 c3         1 KU0      -0.328400
     24 N1          -3.1560    -0.6390    -0.9360 n          1 KU0      -0.421800
     25 N2          -0.1430     1.4180    -0.2420 nd         1 KU0      -0.611300
     26 N3           2.5040     1.8940     0.4120 ns         1 KU0      -0.497900
     27 N4          -2.4050     2.1200    -0.2400 ns         1 KU0      -0.384400
     28 N5          -7.6250    -2.3080     1.0170 nb         1 KU0      -0.640000
     29 O1          -2.7640    -0.8470     1.3170 o          1 KU0      -0.546100
     30 O2           2.0910     3.9050     1.3800 o          1 KU0      -0.577100
     31 O3           6.5560     0.4350     1.7320 o          1 KU0      -0.515000
     32 O4           6.9010     1.6030    -0.5190 o          1 KU0      -0.515000
     33 O6          -3.1210     4.0590     0.6450 o          1 KU0      -0.554000
     34 S1           6.3260     0.5160     0.2840 sy         1 KU0       1.054500
     35 Cl1         -5.8080     1.0910    -0.1830 cl         1 KU0      -0.158500
     36 Cl2         -3.9300    -3.8890     1.3970 cl         1 KU0      -0.158500
     37 H1           7.1050    -0.2290    -2.4520 ha         1 KU0       0.138500
     38 H2           7.7080    -2.4080    -3.4740 ha         1 KU0       0.122000
     39 H3           7.7220    -4.4840    -2.0960 ha         1 KU0       0.118000
     40 H4           7.1270    -4.3770     0.3220 ha         1 KU0       0.122000
     41 H5           6.5210    -2.2100     1.3690 ha         1 KU0       0.138500
     42 H6          -1.0120     0.2560    -3.3040 hc         1 KU0       0.066700
     43 H7          -2.5320     1.1030    -2.9950 hc         1 KU0       0.066700
     44 H8          -3.2110    -0.9700    -4.2320 hc         1 KU0       0.064700
     45 H9          -2.1690    -1.9670    -3.2110 hc         1 KU0       0.064700
     46 H10         -4.7260    -0.4630    -2.3720 h1         1 KU0       0.057700
     47 H11         -4.2740    -2.1460    -2.0010 h1         1 KU0       0.057700
     48 H12         -6.8070    -4.1240     1.6260 h4         1 KU0       0.045600
     49 H13         -8.2120    -0.4110     0.3880 h4         1 KU0       0.045600
     50 H14         -1.0440    -0.8320    -1.0790 h1         1 KU0       0.097700
     51 H15          4.1490     1.9360     1.7010 h1         1 KU0       0.070200
     52 H16          4.3910     2.7500     0.1330 h1         1 KU0       0.070200
     53 H17          4.1190    -0.2970     0.5410 h1         1 KU0       0.098700
     54 H18          4.3610     0.5200    -1.0330 h1         1 KU0       0.098700
     55 H19          2.0520     1.1160    -0.0560 hn         1 KU0       0.341500
     56 H20         -3.3590     1.9090    -0.4960 hn         1 KU0       0.339500
     57 H21         -1.4950     5.1340     1.4570 ho         1 KU0       0.492000
     58 O5          -0.6060     4.7150     1.3820 oh         1 KU0      -0.467100
@<TRIPOS>BOND
     1     1    12 ar  
     2     1    16 ar  
     3     1    35 1   
     4     2     3 ar  
     5     2     7 ar  
     6     2    34 1   
     7     3     4 ar  
     8     3    37 1   
     9     4     5 ar  
    10     4    38 1   
    11     5     6 ar  
    12     5    39 1   
    13     6     7 ar  
    14     6    40 1   
    15     7    41 1   
    16     8     9 1   
    17     8    20 2   
    18     8    58 1   
    19     9    27 1   
    20     9    33 2   
    21    10    11 1   
    22    10    18 1   
    23    10    42 1   
    24    10    43 1   
    25    11    13 1   
    26    11    44 1   
    27    11    45 1   
    28    12    14 ar  
    29    12    17 1   
    30    13    24 1   
    31    13    46 1   
    32    13    47 1   
    33    14    15 ar  
    34    14    36 1   
    35    15    28 ar  
    36    15    48 1   
    37    16    28 ar  
    38    16    49 1   
    39    17    24 1   
    40    17    29 2   
    41    18    19 1   
    42    18    24 1   
    43    18    50 1   
    44    19    25 2   
    45    19    27 1   
    46    20    21 1   
    47    20    25 1   
    48    21    26 1   
    49    21    30 2   
    50    22    23 1   
    51    22    26 1   
    52    22    51 1   
    53    22    52 1   
    54    23    34 1   
    55    23    53 1   
    56    23    54 1   
    57    26    55 1   
    58    27    56 1   
    59    31    34 2   
    60    32    34 2   
    61    57    58 1   
@<TRIPOS>SUBSTRUCTURE
     1 KU0         1 TEMP              0 ****  ****    0 ROOT
