@<TRIPOS>MOLECULE
KU1
   26    27     1     0     0
SMALL
No Charge or Current Charge


@<TRIPOS>ATOM
      1 C1           4.7070    -0.6290    -0.0990 c          1 KU1       0.714000
      2 C2           3.7350     0.5730     0.0600 c3         1 KU1      -0.059000
      3 O1           5.7350    -0.4560    -0.7380 o          1 KU1      -0.728000
      4 O2           4.3830    -1.7090     0.3760 o          1 KU1      -0.728000
      5 C10         -2.6250     0.3910    -0.0230 ca         1 KU1      -0.226600
      6 C11         -1.3390     1.1400    -0.0270 c          1 KU1       0.489400
      7 C3           1.2210     1.0030     0.0060 c          1 KU1       0.520800
      8 C4          -0.1070     0.2860     0.0100 cc         1 KU1       0.222300
      9 C5          -2.5730    -1.0010     0.0150 ca         1 KU1       0.305000
     10 C6          -3.7650    -1.7460     0.0210 ca         1 KU1      -0.181000
     11 C7          -5.0100    -1.0970    -0.0110 ca         1 KU1      -0.053000
     12 C8          -5.0620     0.3050    -0.0490 ca         1 KU1      -0.173000
     13 C9          -3.8730     1.0520    -0.0550 ca         1 KU1      -0.015000
     14 N1           2.3140     0.1500     0.0420 ns         1 KU1      -0.443900
     15 N2          -0.1020    -1.0690     0.0460 nd         1 KU1      -0.347400
     16 N3          -1.3570    -1.6770     0.0470 na         1 KU1      -0.599300
     17 H1           3.9510     1.0700     1.0130 h1         1 KU1       0.037700
     18 H2           3.9100     1.2820    -0.7600 h1         1 KU1       0.037700
     19 H4          -3.7300    -2.8310     0.0500 ha         1 KU1       0.115000
     20 H5          -5.9300    -1.6780    -0.0060 ha         1 KU1       0.106000
     21 H6          -6.0240     0.8130    -0.0730 ha         1 KU1       0.111000
     22 H7          -3.9270     2.1400    -0.0840 ha         1 KU1       0.134000
     23 H8           2.1070    -0.8450     0.0790 hn         1 KU1       0.349500
     24 H9          -1.3660    -2.7030     0.0740 hn         1 KU1       0.535000
     25 O3           1.3990     2.2180    -0.0250 o          1 KU1      -0.619100
     26 O4          -1.3600     2.3680    -0.0600 o          1 KU1      -0.504100
@<TRIPOS>BOND
     1     1     2 1   
     2     1     3 1   
     3     1     4 1   
     4     2    14 1   
     5     2    17 1   
     6     2    18 1   
     7     5     6 1   
     8     5     9 ar  
     9     5    13 ar  
    10     6     8 1   
    11     6    26 2   
    12     7     8 1   
    13     7    14 1   
    14     7    25 2   
    15     8    15 2   
    16     9    10 ar  
    17     9    16 1   
    18    10    11 ar  
    19    10    19 1   
    20    11    12 ar  
    21    11    20 1   
    22    12    13 ar  
    23    12    21 1   
    24    13    22 1   
    25    14    23 1   
    26    15    16 1   
    27    16    24 1   
@<TRIPOS>SUBSTRUCTURE
     1 KU1         1 TEMP              0 ****  ****    0 ROOT
