@<TRIPOS>MOLECULE
KU1
   26    27     1     0     0
SMALL
bcc


@<TRIPOS>ATOM
      1 C1           4.5320    -0.6700    -0.3150 c          1 KU1       0.924600
      2 C2           3.6260     0.5330     0.0200 c3         1 KU1      -0.059000
      3 O1           5.7520    -0.4410    -0.2760 o          1 KU1      -0.833300
      4 O2           3.9670    -1.7480    -0.5840 o          1 KU1      -0.833300
      5 C10         -2.5720     0.4020    -0.0520 ca         1 KU1      -0.226600
      6 C11         -1.3290     1.1710    -0.0780 c          1 KU1       0.489400
      7 C3           1.2300     0.9760     0.2480 c          1 KU1       0.587800
      8 C4          -0.1340     0.3550     0.1540 cc         1 KU1       0.222300
      9 C5          -2.5220    -0.9840     0.1280 ca         1 KU1       0.166600
     10 C6          -3.6930    -1.7530     0.1450 ca         1 KU1      -0.199000
     11 C7          -4.9030    -1.1230    -0.0130 ca         1 KU1      -0.071000
     12 C8          -4.9730     0.2680    -0.1930 ca         1 KU1      -0.191000
     13 C9          -3.8210     1.0170    -0.2130 ca         1 KU1      -0.033000
     14 N1           2.2370     0.1730    -0.0940 ns         1 KU1      -0.510900
     15 N2          -0.1720    -0.9350     0.3000 nd         1 KU1      -0.347400
     16 N3          -1.3010    -1.5740     0.2800 na         1 KU1      -0.405700
     17 H1           3.8570     0.8790     1.0330 h1         1 KU1       0.037700
     18 H2           3.8720     1.3610    -0.6520 h1         1 KU1       0.037700
     19 H4          -3.6370    -2.8260     0.2820 ha         1 KU1       0.133000
     20 H5          -5.8130    -1.7080     0.0010 ha         1 KU1       0.124000
     21 H6          -5.9350     0.7450    -0.3170 ha         1 KU1       0.129000
     22 H7          -3.8660     2.0890    -0.3510 ha         1 KU1       0.152000
     23 H8           2.0650    -0.7870    -0.3570 hn         1 KU1       0.349500
     24 H9          -1.2300    -2.5740     0.4050 hn         1 KU1       0.479800
     25 O3           1.3780     2.1320     0.6250 o          1 KU1      -0.619100
     26 O4          -1.3040     2.3720    -0.2980 o          1 KU1      -0.504100
@<TRIPOS>BOND
     1     1     2 1   
     2     1     3 1   
     3     1     4 1   
     4     2    14 1   
     5     2    17 1   
     6     2    18 1   
     7     5     6 1   
     8     5     9 ar  
     9     5    13 ar  
    10     6     8 1   
    11     6    26 2   
    12     7     8 1   
    13     7    14 1   
    14     7    25 2   
    15     8    15 2   
    16     9    10 ar  
    17     9    16 1   
    18    10    11 ar  
    19    10    19 1   
    20    11    12 ar  
    21    11    20 1   
    22    12    13 ar  
    23    12    21 1   
    24    13    22 1   
    25    14    23 1   
    26    15    16 1   
    27    16    24 1   
@<TRIPOS>SUBSTRUCTURE
     1 KU1         1 TEMP              0 ****  ****    0 ROOT
