@<TRIPOS>MOLECULE
KU2
   61    64     1     0     0
SMALL
No Charge or Current Charge


@<TRIPOS>ATOM
      1 C10        128.3530   193.1220   282.6090 c          1 KU2       0.613100
      2 C13        133.8550   195.6040   280.6770 c3         1 KU2       0.137600
      3 C14        130.6550   198.0970   281.5240 ca         1 KU2      -0.078000
      4 C17        128.4030   196.4000   281.5280 ca         1 KU2      -0.126000
      5 C18        129.3550   196.3120   280.4960 ca         1 KU2      -0.052000
      6 C19        130.4740   197.1610   280.4930 ca         1 KU2      -0.121000
      7 C20        130.8400   194.1030   276.7950 ca         1 KU2      -0.146000
      8 C21        130.5400   193.2920   277.9030 ca         1 KU2      -0.073000
      9 C22        131.2610   193.4460   279.0980 ca         1 KU2      -0.167500
     10 C24        132.5810   195.2210   278.0810 ca         1 KU2      -0.167500
     11 C25        131.8600   195.0650   276.8830 ca         1 KU2      -0.073000
     12 C1         129.7690   194.5450   285.2380 cc         1 KU2       0.437900
     13 C11        127.2480   194.1630   282.8820 c3         1 KU2      -0.042400
     14 C12        134.2980   195.4810   282.1480 c3         1 KU2       0.100000
     15 C15        129.7040   198.1930   282.5540 ca         1 KU2      -0.121000
     16 C16        128.5800   197.3510   282.5580 ca         1 KU2       0.143000
     17 C2         131.4870   196.0710   284.6370 cd         1 KU2      -0.067600
     18 C23        132.2780   194.4090   279.1960 ca         1 KU2       0.124100
     19 C3         130.9530   196.9870   285.5400 cc         1 KU2       0.088900
     20 C4         129.7550   196.6860   286.3650 c          1 KU2       0.550200
     21 C5         132.7160   196.4510   283.8670 c          1 KU2       0.629300
     22 C6         130.8530   191.5510   284.8820 c5         1 KU2      -0.092400
     23 C7         129.7820   192.0630   285.8800 c5         1 KU2      -0.084400
     24 C8         129.0660   193.1900   285.0770 c5         1 KU2       0.089400
     25 C9         130.0720   191.5160   283.5420 c5         1 KU2       0.107000
     26 N1         130.8470   194.8160   284.4940 nd         1 KU2      -0.593300
     27 N2         129.2600   195.4480   286.1320 ns         1 KU2      -0.409400
     28 N3         133.1550   195.4300   283.0680 ns         1 KU2      -0.455900
     29 N4         129.0870   192.6110   283.7030 n          1 KU2      -0.405800
     30 O1         131.4970   198.2200   285.7450 oh         1 KU2      -0.509100
     31 O2         129.2350   197.4340   287.1830 o          1 KU2      -0.502000
     32 O3         133.2820   197.5380   283.9480 o          1 KU2      -0.665100
     33 O4         128.5520   192.6870   281.4810 o          1 KU2      -0.589100
     34 O5         132.9350   194.5290   280.4020 os         1 KU2      -0.365100
     35 S1         126.9680   195.3300   281.4690 ss         1 KU2      -0.130000
     36 Cl1        127.3910   197.5400   283.8460 cl         1 KU2      -0.209000
     37 H1         134.7350   195.5470   280.0240 h1         1 KU2       0.048700
     38 H2         133.3720   196.5780   280.5300 h1         1 KU2       0.048700
     39 H3         131.5230   198.7540   281.5190 ha         1 KU2       0.129000
     40 H4         129.2230   195.5900   279.6930 ha         1 KU2       0.144000
     41 H5         131.1980   197.0990   279.6850 ha         1 KU2       0.122000
     42 H7         129.7480   192.5470   277.8360 ha         1 KU2       0.118000
     43 H8         131.0240   192.8250   279.9580 ha         1 KU2       0.127000
     44 H9         133.3650   195.9710   278.1250 ha         1 KU2       0.127000
     45 H10        132.0920   195.6910   276.0240 ha         1 KU2       0.118000
     46 H11        127.4940   194.7520   283.7670 h1         1 KU2       0.088200
     47 H12        126.3230   193.6110   283.0840 h1         1 KU2       0.088200
     48 H13        134.8860   194.5620   282.2700 h1         1 KU2       0.073700
     49 H14        134.9460   196.3290   282.4050 h1         1 KU2       0.073700
     50 H15        129.8320   198.9280   283.3440 ha         1 KU2       0.141000
     51 H16        131.2510   190.5680   285.1560 hc         1 KU2       0.061700
     52 H17        131.7060   192.2370   284.8240 hc         1 KU2       0.061700
     53 H18        130.2140   192.4190   286.8230 hc         1 KU2       0.062700
     54 H19        129.0770   191.2620   286.1330 hc         1 KU2       0.062700
     55 H20        128.0330   193.2860   285.4360 h1         1 KU2       0.071700
     56 H21        129.5550   190.5570   283.4070 h1         1 KU2       0.061200
     57 H22        130.7360   191.6740   282.6810 h1         1 KU2       0.061200
     58 H23        128.4480   195.1960   286.6770 hn         1 KU2       0.334500
     59 H24        132.5670   194.6040   283.0790 hn         1 KU2       0.356500
     60 H25        132.2850   198.2640   285.1380 ho         1 KU2       0.527000
     61 H6         130.2820   193.9850   275.8690 ha         1 KU2       0.116000
@<TRIPOS>BOND
     1     1    13 1   
     2     1    29 1   
     3     1    33 2   
     4     2    14 1   
     5     2    34 1   
     6     2    37 1   
     7     2    38 1   
     8     3     6 ar  
     9     3    15 ar  
    10     3    39 1   
    11     4     5 ar  
    12     4    16 ar  
    13     4    35 1   
    14     5     6 ar  
    15     5    40 1   
    16     6    41 1   
    17     7     8 ar  
    18     7    11 ar  
    19     7    61 1   
    20     8     9 ar  
    21     8    42 1   
    22     9    18 ar  
    23     9    43 1   
    24    10    11 ar  
    25    10    18 ar  
    26    10    44 1   
    27    11    45 1   
    28    12    24 1   
    29    12    26 2   
    30    12    27 1   
    31    13    35 1   
    32    13    46 1   
    33    13    47 1   
    34    14    28 1   
    35    14    48 1   
    36    14    49 1   
    37    15    16 ar  
    38    15    50 1   
    39    16    36 1   
    40    17    19 2   
    41    17    21 1   
    42    17    26 1   
    43    18    34 1   
    44    19    20 1   
    45    19    30 1   
    46    20    27 1   
    47    20    31 2   
    48    21    28 1   
    49    21    32 2   
    50    22    23 1   
    51    22    25 1   
    52    22    51 1   
    53    22    52 1   
    54    23    24 1   
    55    23    53 1   
    56    23    54 1   
    57    24    29 1   
    58    24    55 1   
    59    25    29 1   
    60    25    56 1   
    61    25    57 1   
    62    27    58 1   
    63    28    59 1   
    64    30    60 1   
@<TRIPOS>SUBSTRUCTURE
     1 KU2         1 TEMP              0 ****  ****    0 ROOT
