@<TRIPOS>MOLECULE
KU2
   61    64     1     0     0
SMALL
abcg2


@<TRIPOS>ATOM
      1 C10        128.6400   192.7530   282.5300 c          1 KU2       0.613100
      2 C13        133.9720   195.1840   280.6020 c3         1 KU2       0.137600
      3 C14        130.3120   198.3990   282.1200 ca         1 KU2      -0.078000
      4 C17        128.6720   196.1880   281.5720 ca         1 KU2      -0.126000
      5 C18        129.8750   196.3810   280.8900 ca         1 KU2      -0.052000
      6 C19        130.6880   197.4750   281.1540 ca         1 KU2      -0.121000
      7 C20        130.4120   194.6290   277.0620 ca         1 KU2      -0.146000
      8 C21        130.2760   193.5860   277.9780 ca         1 KU2      -0.073000
      9 C22        131.1750   193.4480   279.0240 ca         1 KU2      -0.167500
     10 C24        132.3780   195.3970   278.2490 ca         1 KU2      -0.167500
     11 C25        131.4640   195.5250   277.2050 ca         1 KU2      -0.073000
     12 C1         129.7950   194.6820   284.9170 cc         1 KU2       0.437900
     13 C11        127.5000   193.7560   282.4500 c3         1 KU2      -0.042400
     14 C12        134.3680   194.9320   282.0440 c3         1 KU2       0.100000
     15 C15        129.1280   198.2210   282.8250 ca         1 KU2      -0.121000
     16 C16        128.3160   197.1300   282.5460 ca         1 KU2       0.143000
     17 C2         131.5720   195.9970   284.3390 cd         1 KU2      -0.067600
     18 C23        132.2240   194.3590   279.1680 ca         1 KU2       0.124100
     19 C3         131.1370   197.0550   285.0940 cc         1 KU2       0.088900
     20 C4         129.8860   196.9330   285.8350 c          1 KU2       0.550200
     21 C5         132.8400   196.1110   283.5720 c          1 KU2       0.629300
     22 C6         130.7900   191.7370   285.3160 c5         1 KU2      -0.092400
     23 C7         129.6160   192.4250   286.0190 c5         1 KU2      -0.084400
     24 C8         129.0520   193.3640   284.9350 c5         1 KU2       0.089400
     25 C9         130.3150   191.5750   283.8700 c5         1 KU2       0.107000
     26 N1         130.8880   194.8150   284.2470 nd         1 KU2      -0.593300
     27 N2         129.2970   195.6890   285.6900 ns         1 KU2      -0.409400
     28 N3         133.2220   195.0070   282.9290 ns         1 KU2      -0.455900
     29 N4         129.2750   192.6060   283.7080 n          1 KU2      -0.405800
     30 O1         131.7700   198.2260   285.1880 oh         1 KU2      -0.509100
     31 O2         129.3770   197.8190   286.5110 o          1 KU2      -0.502000
     32 O3         133.4830   197.1820   283.5650 o          1 KU2      -0.665100
     33 O4         128.9280   192.0550   281.5560 o          1 KU2      -0.589100
     34 O5         133.0350   194.1660   280.2450 os         1 KU2      -0.365100
     35 S1         127.6080   194.8780   281.0170 ss         1 KU2      -0.130000
     36 CL1        126.8190   196.9850   283.4360 cl         1 KU2      -0.209000
     37 H1         134.8490   195.1410   279.9500 h1         1 KU2       0.048700
     38 H2         133.5090   196.1680   280.5110 h1         1 KU2       0.048700
     39 H3         130.9410   199.2500   282.3430 ha         1 KU2       0.129000
     40 H4         130.1620   195.6600   280.1390 ha         1 KU2       0.144000
     41 H5         131.6120   197.5990   280.6060 ha         1 KU2       0.122000
     42 H7         129.4560   192.8850   277.8860 ha         1 KU2       0.118000
     43 H8         131.0580   192.6620   279.7590 ha         1 KU2       0.127000
     44 H9         133.1890   196.1040   278.3400 ha         1 KU2       0.127000
     45 H10        131.5840   196.3380   276.5000 ha         1 KU2       0.118000
     46 H11        127.3540   194.3450   283.3470 h1         1 KU2       0.088200
     47 H12        126.5870   193.1830   282.2770 h1         1 KU2       0.088200
     48 H13        134.8140   193.9420   282.1430 h1         1 KU2       0.073700
     49 H14        135.1010   195.6760   282.3490 h1         1 KU2       0.073700
     50 H15        128.8290   198.9260   283.5880 ha         1 KU2       0.141000
     51 H16        131.0380   190.7790   285.7710 hc         1 KU2       0.061700
     52 H17        131.6760   192.3700   285.3530 hc         1 KU2       0.061700
     53 H18        129.9020   192.9640   286.9210 hc         1 KU2       0.062700
     54 H19        128.8420   191.7020   286.2790 hc         1 KU2       0.062700
     55 H20        127.9920   193.5480   285.1030 h1         1 KU2       0.071700
     56 H21        129.8730   190.5940   283.6870 h1         1 KU2       0.061200
     57 H22        131.1120   191.7280   283.1440 h1         1 KU2       0.061200
     58 H23        128.4200   195.5560   286.1820 hn         1 KU2       0.334500
     59 H24        132.5810   194.2260   282.9740 hn         1 KU2       0.356500
     60 H25        132.5720   198.1370   284.6000 ho         1 KU2       0.527000
     61 H6         129.7050   194.7400   276.2510 ha         1 KU2       0.116000
@<TRIPOS>BOND
     1     1    13 1   
     2     1    29 1   
     3     1    33 2   
     4     2    14 1   
     5     2    34 1   
     6     2    37 1   
     7     2    38 1   
     8     3     6 ar  
     9     3    15 ar  
    10     3    39 1   
    11     4     5 ar  
    12     4    16 ar  
    13     4    35 1   
    14     5     6 ar  
    15     5    40 1   
    16     6    41 1   
    17     7     8 ar  
    18     7    11 ar  
    19     7    61 1   
    20     8     9 ar  
    21     8    42 1   
    22     9    18 ar  
    23     9    43 1   
    24    10    11 ar  
    25    10    18 ar  
    26    10    44 1   
    27    11    45 1   
    28    12    24 1   
    29    12    26 2   
    30    12    27 1   
    31    13    35 1   
    32    13    46 1   
    33    13    47 1   
    34    14    28 1   
    35    14    48 1   
    36    14    49 1   
    37    15    16 ar  
    38    15    50 1   
    39    16    36 1   
    40    17    19 2   
    41    17    21 1   
    42    17    26 1   
    43    18    34 1   
    44    19    20 1   
    45    19    30 1   
    46    20    27 1   
    47    20    31 2   
    48    21    28 1   
    49    21    32 2   
    50    22    23 1   
    51    22    25 1   
    52    22    51 1   
    53    22    52 1   
    54    23    24 1   
    55    23    53 1   
    56    23    54 1   
    57    24    29 1   
    58    24    55 1   
    59    25    29 1   
    60    25    56 1   
    61    25    57 1   
    62    27    58 1   
    63    28    59 1   
    64    30    60 1   
@<TRIPOS>SUBSTRUCTURE
     1 KU2         1 TEMP              0 ****  ****    0 ROOT
