@<TRIPOS>MOLECULE
KU3
   42    45     1     0     0
SMALL
abcg2


@<TRIPOS>ATOM
      1 C01         -2.1870    -3.6740     0.1080 c3         1 KU3      -0.086600
      2 C02         -3.0070    -2.6560     0.9030 c3         1 KU3      -0.003400
      3 C03         -2.8730    -2.8940     2.4050 c3         1 KU3      -0.086600
      4 C04         -2.6140    -1.2520     0.5090 ca         1 KU3      -0.117300
      5 C05         -1.4680    -0.6240     0.9680 ca         1 KU3      -0.007000
      6 C06         -1.0700     0.6620     0.5730 ca         1 KU3      -0.221600
      7 C07         -1.8250     1.3950    -0.3290 ca         1 KU3       0.249100
      8 O08         -1.4010     2.6120    -0.6890 oh         1 KU3      -0.508100
      9 C09         -2.9840     0.7880    -0.8220 ca         1 KU3      -0.346900
     10 C10         -3.3380    -0.4870    -0.4010 ca         1 KU3       0.128100
     11 O11         -4.4750    -0.8460    -1.0180 os         1 KU3      -0.114100
     12 N12         -4.8840     0.1720    -1.8410 nc         1 KU3      -0.282700
     13 C13         -4.0240     1.1290    -1.7370 cd         1 KU3       0.383800
     14 C14          0.1620     1.2760     1.1650 c          1 KU3       0.635700
     15 O15          0.0980     2.1170     2.0510 o          1 KU3      -0.582100
     16 N16          1.3250     0.8360     0.6690 n          1 KU3      -0.414800
     17 C17          1.4640    -0.1060    -0.4410 c5         1 KU3       0.163300
     18 C18          2.9440    -0.1230    -0.6570 ca         1 KU3      -0.124300
     19 C19          3.5840     0.7020     0.2530 ca         1 KU3      -0.071300
     20 C20          2.5950     1.3580     1.1620 c5         1 KU3       0.149300
     21 C21          4.9620     0.8470     0.2470 ca         1 KU3      -0.133000
     22 C22          5.6650     0.1340    -0.7060 ca         1 KU3       0.176000
     23 F23          7.0030     0.2550    -0.7410 f          1 KU3      -0.177000
     24 C24          5.0530    -0.6990    -1.6280 ca         1 KU3      -0.150000
     25 C25          3.6710    -0.8290    -1.6020 ca         1 KU3      -0.063000
     26 H1          -1.1230    -3.5710     0.3270 hc         1 KU3       0.037200
     27 H2          -2.4850    -4.6920     0.3610 hc         1 KU3       0.037200
     28 H3          -2.3210    -3.5420    -0.9670 hc         1 KU3       0.037200
     29 H4          -4.0600    -2.7970     0.6430 hc         1 KU3       0.066700
     30 H5          -1.8380    -2.8060     2.7400 hc         1 KU3       0.037200
     31 H6          -3.4730    -2.1860     2.9770 hc         1 KU3       0.037200
     32 H7          -3.2110    -3.8990     2.6570 hc         1 KU3       0.037200
     33 H8          -0.8340    -1.1480     1.6740 ha         1 KU3       0.129000
     34 H9          -1.9970     3.0270    -1.3230 ho         1 KU3       0.476000
     35 H10         -4.1660     2.0330    -2.3110 h4         1 KU3       0.053800
     36 H11          1.0820    -1.0970    -0.1830 h1         1 KU3       0.058200
     37 H12          0.9220     0.2340    -1.3270 h1         1 KU3       0.058200
     38 H13          2.6290     2.4490     1.0920 h1         1 KU3       0.071700
     39 H14          2.7550     1.0930     2.2110 h1         1 KU3       0.071700
     40 H15          5.4760     1.4890     0.9510 ha         1 KU3       0.139000
     41 H16          5.6480    -1.2340    -2.3560 ha         1 KU3       0.135000
     42 H17          3.1770    -1.4740    -2.3180 ha         1 KU3       0.122000
@<TRIPOS>BOND
     1     1     2 1   
     2     1    26 1   
     3     1    27 1   
     4     1    28 1   
     5     2     3 1   
     6     2     4 1   
     7     2    29 1   
     8     3    30 1   
     9     3    31 1   
    10     3    32 1   
    11     4     5 ar  
    12     4    10 ar  
    13     5     6 ar  
    14     5    33 1   
    15     6     7 ar  
    16     6    14 1   
    17     7     8 1   
    18     7     9 ar  
    19     8    34 1   
    20     9    10 ar  
    21     9    13 1   
    22    10    11 1   
    23    11    12 1   
    24    12    13 2   
    25    13    35 1   
    26    14    15 2   
    27    14    16 1   
    28    16    17 1   
    29    16    20 1   
    30    17    18 1   
    31    17    36 1   
    32    17    37 1   
    33    18    19 ar  
    34    18    25 ar  
    35    19    20 1   
    36    19    21 ar  
    37    20    38 1   
    38    20    39 1   
    39    21    22 ar  
    40    21    40 1   
    41    22    23 1   
    42    22    24 ar  
    43    24    25 ar  
    44    24    41 1   
    45    25    42 1   
@<TRIPOS>SUBSTRUCTURE
     1 KU3         1 TEMP              0 ****  ****    0 ROOT
