@<TRIPOS>MOLECULE
KU3
   42    45     1     0     0
SMALL
No Charge or Current Charge


@<TRIPOS>ATOM
      1 C01         -1.7400    -3.5880     0.0870 c3         1 KU3      -0.086600
      2 C02         -2.8100    -2.6680     0.7160 c3         1 KU3      -0.003400
      3 C03         -2.9090    -2.8710     2.2430 c3         1 KU3      -0.086600
      4 C04         -2.5580    -1.2000     0.3650 ca         1 KU3      -0.117300
      5 C05         -1.3670    -0.5440     0.7540 ca         1 KU3      -0.007000
      6 C06         -1.1310     0.8160     0.4180 ca         1 KU3      -0.221600
      7 C07         -2.1130     1.5370    -0.2970 ca         1 KU3       0.249100
      8 O08         -1.9190     2.8330    -0.6640 oh         1 KU3      -0.508100
      9 C09         -3.2810     0.8640    -0.6630 ca         1 KU3      -0.346900
     10 C10         -3.4960    -0.4410    -0.3520 ca         1 KU3       0.128100
     11 O11         -4.7080    -0.8690    -0.8280 os         1 KU3      -0.114100
     12 N12         -5.3190     0.2760    -1.5120 nc         1 KU3      -0.282700
     13 C13         -4.4470     1.2820    -1.3940 cd         1 KU3       0.383800
     14 C14          0.1470     1.4800     0.8540 c          1 KU3       0.635700
     15 O15          0.1420     2.5540     1.4440 o          1 KU3      -0.582100
     16 N16          1.3430     0.7550     0.6910 n          1 KU3      -0.414800
     17 C17          1.5060    -0.2340    -0.4260 c5         1 KU3       0.163300
     18 C18          3.0020    -0.2580    -0.5850 ca         1 KU3      -0.124300
     19 C19          3.6300     0.5840     0.3080 ca         1 KU3      -0.071300
     20 C20          2.6470     1.3050     1.1910 c5         1 KU3       0.149300
     21 C21          5.0290     0.7050     0.3250 ca         1 KU3      -0.133000
     22 C22          5.7830    -0.0540    -0.5880 ca         1 KU3       0.176000
     23 F23          7.1310     0.0450    -0.5910 f          1 KU3      -0.177000
     24 C24          5.1440    -0.9160    -1.5020 ca         1 KU3      -0.150000
     25 C25          3.7390    -1.0240    -1.5040 ca         1 KU3      -0.063000
     26 H1          -0.7450    -3.3830     0.5010 hc         1 KU3       0.037200
     27 H2          -1.9770    -4.6420     0.2760 hc         1 KU3       0.037200
     28 H3          -1.6970    -3.4390    -0.9990 hc         1 KU3       0.037200
     29 H4          -3.7740    -2.9790     0.2950 hc         1 KU3       0.066700
     30 H5          -1.9610    -2.6320     2.7380 hc         1 KU3       0.037200
     31 H6          -3.6900    -2.2270     2.6660 hc         1 KU3       0.037200
     32 H7          -3.1640    -3.9120     2.4790 hc         1 KU3       0.037200
     33 H8          -0.6270    -1.0890     1.3370 ha         1 KU3       0.129000
     34 H9          -2.7210     3.1520    -1.1230 ho         1 KU3       0.476000
     35 H10         -4.6930     2.2410    -1.8320 h4         1 KU3       0.053800
     36 H11          1.1270    -1.2280    -0.1570 h1         1 KU3       0.058200
     37 H12          1.0110     0.1020    -1.3470 h1         1 KU3       0.058200
     38 H13          2.7190     2.3920     1.0560 h1         1 KU3       0.071700
     39 H14          2.8060     1.0650     2.2510 h1         1 KU3       0.071700
     40 H15          5.5240     1.3700     1.0280 ha         1 KU3       0.139000
     41 H16          5.7380    -1.4980    -2.2030 ha         1 KU3       0.135000
     42 H17          3.2360    -1.6870    -2.2050 ha         1 KU3       0.122000
@<TRIPOS>BOND
     1     1     2 1   
     2     1    26 1   
     3     1    27 1   
     4     1    28 1   
     5     2     3 1   
     6     2     4 1   
     7     2    29 1   
     8     3    30 1   
     9     3    31 1   
    10     3    32 1   
    11     4     5 ar  
    12     4    10 ar  
    13     5     6 ar  
    14     5    33 1   
    15     6     7 ar  
    16     6    14 1   
    17     7     8 1   
    18     7     9 ar  
    19     8    34 1   
    20     9    10 ar  
    21     9    13 1   
    22    10    11 1   
    23    11    12 1   
    24    12    13 2   
    25    13    35 1   
    26    14    15 2   
    27    14    16 1   
    28    16    17 1   
    29    16    20 1   
    30    17    18 1   
    31    17    36 1   
    32    17    37 1   
    33    18    19 ar  
    34    18    25 ar  
    35    19    20 1   
    36    19    21 ar  
    37    20    38 1   
    38    20    39 1   
    39    21    22 ar  
    40    21    40 1   
    41    22    23 1   
    42    22    24 ar  
    43    24    25 ar  
    44    24    41 1   
    45    25    42 1   
@<TRIPOS>SUBSTRUCTURE
     1 KU3         1 TEMP              0 ****  ****    0 ROOT
