@<TRIPOS>MOLECULE
KU4
   63    66     1     0     0
SMALL
No Charge or Current Charge


@<TRIPOS>ATOM
      1 C1           0.0950    -3.0620    -1.5200 c          1 KU4       0.509200
      2 C10          5.4720     5.1170    -1.6960 ca         1 KU4      -0.149000
      3 C11          4.6150     4.8090    -0.6270 ca         1 KU4      -0.074000
      4 C12          4.5970     3.5070    -0.0970 ca         1 KU4      -0.172000
      5 C13          0.3870    -2.0930     0.6620 cc         1 KU4       0.479900
      6 C14         -0.2860    -1.6920     1.9710 c5         1 KU4       0.073400
      7 C16         -3.5480     0.2850     0.9850 c3         1 KU4      -0.150400
      8 C17         -3.9310     1.2990    -0.1180 c3         1 KU4      -0.019100
      9 C18         -5.4200     1.6390    -0.0920 ca         1 KU4      -0.076300
     10 C19         -6.2970     0.9530    -0.9580 ca         1 KU4      -0.102000
     11 C2           1.5450    -2.8390    -1.6870 cc         1 KU4       0.046900
     12 C20         -7.6730     1.2380    -0.9550 ca         1 KU4      -0.106000
     13 C21         -8.1880     2.2120    -0.0840 ca         1 KU4      -0.101000
     14 C22         -7.3240     2.8990     0.7850 ca         1 KU4      -0.103000
     15 C23         -5.9470     2.6170     0.7850 ca         1 KU4       0.123000
     16 C24         -2.5820    -1.7660     2.9090 c5         1 KU4       0.103000
     17 C25         -1.5690    -2.4370     3.8690 c5         1 KU4      -0.096400
     18 C26         -0.4810    -2.9350     2.8880 c5         1 KU4      -0.088400
     19 C3           2.3400    -2.2710    -0.6860 cd         1 KU4       0.029400
     20 C4           3.8240    -2.0670    -0.9050 c          1 KU4       0.630300
     21 C5           5.8330    -1.0980     0.2900 c3         1 KU4       0.105000
     22 C6           6.1710     0.1550    -0.5490 c3         1 KU4       0.138600
     23 C7           5.4310     2.5100    -0.6290 ca         1 KU4       0.147100
     24 C8           6.2920     2.8230    -1.7040 ca         1 KU4      -0.172000
     25 C9           6.3100     4.1250    -2.2350 ca         1 KU4      -0.074000
     26 N1           4.4220    -1.4970     0.1970 ns         1 KU4      -0.491900
     27 N2           1.7030    -1.8960     0.5310 nd         1 KU4      -0.612300
     28 N3          -1.6880    -1.1820     1.8810 n          1 KU4      -0.439800
     29 N4          -0.3690    -2.6630    -0.3220 ns         1 KU4      -0.381400
     30 O1          -0.6340    -3.5580    -2.3680 o          1 KU4      -0.560000
     31 O2           1.9940    -3.2490    -2.9050 oh         1 KU4      -0.471100
     32 O3           5.3680     1.2510    -0.0680 os         1 KU4      -0.355100
     33 O4           4.4720    -2.3530    -1.9060 o          1 KU4      -0.590100
     34 O5          -1.2310     0.4320     0.3260 o          1 KU4      -0.579100
     35 Cl1         -4.9110     3.5070     1.9030 cl         1 KU4      -0.209000
     36 H2           3.9660     5.5760    -0.2100 ha         1 KU4       0.110500
     37 H3           3.9330     3.2680     0.7310 ha         1 KU4       0.119000
     38 H4           0.3400    -0.9420     2.4740 h1         1 KU4       0.098700
     39 H5          -4.1550    -0.6260     0.9240 hc         1 KU4       0.065200
     40 H6          -3.8170     0.6580     1.9790 hc         1 KU4       0.065200
     41 H7          -3.3260     2.2080    -0.0100 hc         1 KU4       0.071700
     42 H8          -3.6580     0.8800    -1.0950 hc         1 KU4       0.071700
     43 H9          -5.9120     0.1940    -1.6360 ha         1 KU4       0.117000
     44 H10         -8.3400     0.7030    -1.6270 ha         1 KU4       0.119000
     45 H11         -9.2540     2.4320    -0.0810 ha         1 KU4       0.119000
     46 H12         -7.7220     3.6510     1.4610 ha         1 KU4       0.130000
     47 H13         -3.2590    -2.5040     2.4570 h1         1 KU4       0.051700
     48 H14         -3.1850    -1.0100     3.4300 h1         1 KU4       0.051700
     49 H15         -1.1570    -1.7090     4.5780 hc         1 KU4       0.062200
     50 H16         -2.0200    -3.2460     4.4540 hc         1 KU4       0.062200
     51 H17         -0.8350    -3.8070     2.3230 hc         1 KU4       0.064700
     52 H18          0.4450    -3.2290     3.3950 hc         1 KU4       0.064700
     53 H19          6.4610    -1.9340    -0.0450 h1         1 KU4       0.066700
     54 H20          6.0760    -0.9020     1.3430 h1         1 KU4       0.066700
     55 H21          7.2400     0.3810    -0.4410 h1         1 KU4       0.045700
     56 H22          5.9620    -0.0460    -1.6070 h1         1 KU4       0.045700
     57 H23          6.9490     2.0750    -2.1380 ha         1 KU4       0.119000
     58 H24          6.9730     4.3660    -3.0630 ha         1 KU4       0.110500
     59 H25          3.7910    -1.2860     0.9640 hn         1 KU4       0.347500
     60 H26         -1.3570    -2.7900    -0.1600 hn         1 KU4       0.339500
     61 H27          1.2110    -3.6040    -3.3870 ho         1 KU4       0.490000
     62 C15         -2.0650    -0.1230     1.0270 c          1 KU4       0.597100
     63 H1           5.4880     6.1240    -2.1070 ha         1 KU4       0.114000
@<TRIPOS>BOND
     1     1    11 1   
     2     1    29 1   
     3     1    30 2   
     4     2     3 ar  
     5     2    25 ar  
     6     2    63 1   
     7     3     4 ar  
     8     3    36 1   
     9     4    23 ar  
    10     4    37 1   
    11     5     6 1   
    12     5    27 2   
    13     5    29 1   
    14     6    18 1   
    15     6    28 1   
    16     6    38 1   
    17     7     8 1   
    18     7    39 1   
    19     7    40 1   
    20     7    62 1   
    21     8     9 1   
    22     8    41 1   
    23     8    42 1   
    24     9    10 ar  
    25     9    15 ar  
    26    10    12 ar  
    27    10    43 1   
    28    11    19 2   
    29    11    31 1   
    30    12    13 ar  
    31    12    44 1   
    32    13    14 ar  
    33    13    45 1   
    34    14    15 ar  
    35    14    46 1   
    36    15    35 1   
    37    16    17 1   
    38    16    28 1   
    39    16    47 1   
    40    16    48 1   
    41    17    18 1   
    42    17    49 1   
    43    17    50 1   
    44    18    51 1   
    45    18    52 1   
    46    19    20 1   
    47    19    27 1   
    48    20    26 1   
    49    20    33 2   
    50    21    22 1   
    51    21    26 1   
    52    21    53 1   
    53    21    54 1   
    54    22    32 1   
    55    22    55 1   
    56    22    56 1   
    57    23    24 ar  
    58    23    32 1   
    59    24    25 ar  
    60    24    57 1   
    61    25    58 1   
    62    26    59 1   
    63    28    62 1   
    64    29    60 1   
    65    31    61 1   
    66    34    62 2   
@<TRIPOS>SUBSTRUCTURE
     1 KU4         1 TEMP              0 ****  ****    0 ROOT
