@<TRIPOS>MOLECULE
KU4
   63    66     1     0     0
SMALL
abcg2


@<TRIPOS>ATOM
      1 C1          -0.1550    -3.5470    -1.1910 c          1 KU4       0.509200
      2 C10          4.9140     5.0850    -0.2070 ca         1 KU4      -0.149000
      3 C11          4.4230     4.3740     0.8840 ca         1 KU4      -0.074000
      4 C12          4.5270     2.9950     0.9320 ca         1 KU4      -0.172000
      5 C13          0.4400    -1.9920     0.5340 cc         1 KU4       0.479900
      6 C14         -0.0040    -1.2760     1.7770 c5         1 KU4       0.073400
      7 C16         -3.2240     0.4640     0.7720 c3         1 KU4      -0.150400
      8 C17         -3.7100     1.0380    -0.5560 c3         1 KU4      -0.019100
      9 C18         -5.1540     1.4420    -0.4700 ca         1 KU4      -0.076300
     10 C19         -6.1490     0.5750    -0.9210 ca         1 KU4      -0.102000
     11 C2           1.2270    -3.4190    -1.6460 cc         1 KU4       0.046900
     12 C20         -7.4950     0.8940    -0.8320 ca         1 KU4      -0.106000
     13 C21         -7.8790     2.1090    -0.2820 ca         1 KU4      -0.101000
     14 C22         -6.9150     2.9930     0.1780 ca         1 KU4      -0.103000
     15 C23         -5.5750     2.6500     0.0810 ca         1 KU4       0.123000
     16 C24         -2.1380    -1.1300     2.9280 c5         1 KU4       0.103000
     17 C25         -1.0530    -1.5570     3.9080 c5         1 KU4      -0.096400
     18 C26          0.0010    -2.1910     3.0100 c5         1 KU4      -0.088400
     19 C3           2.0710    -2.5990    -0.9610 cd         1 KU4       0.029400
     20 C4           3.5030    -2.4020    -1.3510 c          1 KU4       0.630300
     21 C5           5.5740    -1.2730    -0.6600 c3         1 KU4       0.105000
     22 C6           5.7330     0.1840    -1.0400 c3         1 KU4       0.138600
     23 C7           5.1320     2.3000    -0.1180 ca         1 KU4       0.147100
     24 C8           5.6280     3.0050    -1.2130 ca         1 KU4      -0.172000
     25 C9           5.5130     4.3910    -1.2460 ca         1 KU4      -0.074000
     26 N1           4.1940    -1.6490    -0.4840 ns         1 KU4      -0.491900
     27 N2           1.6530    -1.8910     0.1340 nd         1 KU4      -0.612300
     28 N3          -1.3840    -0.8200     1.7120 n          1 KU4      -0.439800
     29 N4          -0.4550    -2.8000    -0.0900 ns         1 KU4      -0.381400
     30 O1          -0.9630    -4.2660    -1.7590 o          1 KU4      -0.560000
     31 O2           1.5490    -4.1360    -2.7160 oh         1 KU4      -0.471100
     32 O3           5.1950     0.9600     0.0150 os         1 KU4      -0.355100
     33 O4           3.9750    -2.8970    -2.3640 o          1 KU4      -0.590100
     34 O5          -1.0210     0.3220    -0.1810 o          1 KU4      -0.579100
     35 CL1         -4.3970     3.7870     0.6710 cl         1 KU4      -0.209000
     36 H2           3.9520     4.8970     1.7060 ha         1 KU4       0.110500
     37 H3           4.1410     2.4440     1.7810 ha         1 KU4       0.119000
     38 H4           0.6850    -0.4390     1.9190 h1         1 KU4       0.098700
     39 H5          -3.8670    -0.3670     1.0720 hc         1 KU4       0.065200
     40 H6          -3.3150     1.2120     1.5660 hc         1 KU4       0.065200
     41 H7          -3.0910     1.8860    -0.8530 hc         1 KU4       0.071700
     42 H8          -3.6040     0.2840    -1.3380 hc         1 KU4       0.071700
     43 H9          -5.8490    -0.3730    -1.3520 ha         1 KU4       0.117000
     44 H10         -8.2410     0.1980    -1.1930 ha         1 KU4       0.119000
     45 H11         -8.9250     2.3740    -0.2070 ha         1 KU4       0.119000
     46 H12         -7.2040     3.9430     0.6080 ha         1 KU4       0.130000
     47 H13         -2.8540    -1.9360     2.7470 h1         1 KU4       0.051700
     48 H14         -2.6920    -0.2620     3.2820 h1         1 KU4       0.051700
     49 H15         -0.6400    -0.6810     4.4130 hc         1 KU4       0.062200
     50 H16         -1.4310    -2.2380     4.6690 hc         1 KU4       0.062200
     51 H17         -0.2980    -3.2050     2.7340 hc         1 KU4       0.064700
     52 H18          0.9890    -2.2450     3.4620 hc         1 KU4       0.064700
     53 H19          6.0140    -1.8850    -1.4450 h1         1 KU4       0.066700
     54 H20          6.1250    -1.4820     0.2600 h1         1 KU4       0.066700
     55 H21          6.7950     0.4070    -1.1890 h1         1 KU4       0.045700
     56 H22          5.2080     0.3870    -1.9790 h1         1 KU4       0.045700
     57 H23          6.1030     2.5000    -2.0420 ha         1 KU4       0.119000
     58 H24          5.9030     4.9260    -2.1030 ha         1 KU4       0.110500
     59 H25          3.6830    -1.2690     0.3000 hn         1 KU4       0.347500
     60 H26         -1.4090    -2.8440     0.2520 hn         1 KU4       0.339500
     61 H27          0.7650    -4.6410    -2.9860 ho         1 KU4       0.490000
     62 C15         -1.7870     0.0020     0.7170 c          1 KU4       0.597100
     63 H1           4.8300     6.1620    -0.2430 ha         1 KU4       0.114000
@<TRIPOS>BOND
     1     1    11 1   
     2     1    29 1   
     3     1    30 2   
     4     2     3 ar  
     5     2    25 ar  
     6     2    63 1   
     7     3     4 ar  
     8     3    36 1   
     9     4    23 ar  
    10     4    37 1   
    11     5     6 1   
    12     5    27 2   
    13     5    29 1   
    14     6    18 1   
    15     6    28 1   
    16     6    38 1   
    17     7     8 1   
    18     7    39 1   
    19     7    40 1   
    20     7    62 1   
    21     8     9 1   
    22     8    41 1   
    23     8    42 1   
    24     9    10 ar  
    25     9    15 ar  
    26    10    12 ar  
    27    10    43 1   
    28    11    19 2   
    29    11    31 1   
    30    12    13 ar  
    31    12    44 1   
    32    13    14 ar  
    33    13    45 1   
    34    14    15 ar  
    35    14    46 1   
    36    15    35 1   
    37    16    17 1   
    38    16    28 1   
    39    16    47 1   
    40    16    48 1   
    41    17    18 1   
    42    17    49 1   
    43    17    50 1   
    44    18    51 1   
    45    18    52 1   
    46    19    20 1   
    47    19    27 1   
    48    20    26 1   
    49    20    33 2   
    50    21    22 1   
    51    21    26 1   
    52    21    53 1   
    53    21    54 1   
    54    22    32 1   
    55    22    55 1   
    56    22    56 1   
    57    23    24 ar  
    58    23    32 1   
    59    24    25 ar  
    60    24    57 1   
    61    25    58 1   
    62    26    59 1   
    63    28    62 1   
    64    29    60 1   
    65    31    61 1   
    66    34    62 2   
@<TRIPOS>SUBSTRUCTURE
     1 KU4         1 TEMP              0 ****  ****    0 ROOT
