@<TRIPOS>MOLECULE
KU5
   63    66     1     0     0
SMALL
abcg2


@<TRIPOS>ATOM
      1 C1         194.4460  -311.8930   692.3040 cc         1 KU5       0.464900
      2 C10        195.8920  -315.7410   695.1190 ca         1 KU5      -0.127000
      3 C11        195.0800  -314.6540   695.4340 ca         1 KU5      -0.059000
      4 C12        193.7940  -314.5650   694.9140 ca         1 KU5      -0.127000
      5 C13        193.3180  -315.5510   694.0600 ca         1 KU5      -0.016500
      6 C14        193.1880  -311.0620   692.1610 c5         1 KU5       0.080400
      7 C15        192.1390  -311.3740   693.2450 c5         1 KU5      -0.086400
      8 C16        191.3240  -312.5140   692.6310 c5         1 KU5      -0.093400
      9 C17        191.2510  -312.1480   691.1490 c5         1 KU5       0.112000
     10 C19        192.2260  -311.4660   688.5140 c3         1 KU5      -0.066400
     11 C2         195.7060  -313.7620   691.9380 cd         1 KU5      -0.063600
     12 C20        194.3830  -312.2040   686.8910 ca         1 KU5      -0.087000
     13 C21        194.6560  -313.1660   687.8690 ca         1 KU5      -0.108000
     14 C22        195.7660  -313.9950   687.7610 ca         1 KU5      -0.097000
     15 C23        196.6300  -313.8860   686.6780 ca         1 KU5      -0.106000
     16 C24        196.3740  -312.9410   685.6930 ca         1 KU5      -0.089000
     17 C25        195.2640  -312.1170   685.8060 ca         1 KU5       0.130000
     18 C3         196.7700  -313.2890   692.6610 cc         1 KU5       0.090900
     19 C4         196.6650  -311.9820   693.2990 c          1 KU5       0.551200
     20 C5         195.7780  -315.1150   691.3360 c          1 KU5       0.629300
     21 C6         194.4900  -316.9060   690.2570 c3         1 KU5       0.141000
     22 C7         194.6390  -318.0120   691.2980 c3         1 KU5      -0.331400
     23 C8         194.1370  -316.6290   693.7490 ca         1 KU5      -0.264500
     24 C9         195.4210  -316.7410   694.2790 ca         1 KU5      -0.016500
     25 N1         195.4550  -311.3590   693.0490 ns         1 KU5      -0.405400
     26 N2         194.5430  -313.0600   691.7650 nd         1 KU5      -0.614300
     27 N3         194.6470  -315.5660   690.7900 ns         1 KU5      -0.482900
     28 N4         192.4920  -311.3890   690.9230 n          1 KU5      -0.411800
     29 O1         197.5370  -311.4590   693.9840 o          1 KU5      -0.501000
     30 O2         197.9160  -313.9480   692.8430 oh         1 KU5      -0.504100
     31 O3         196.8310  -315.7820   691.3740 o          1 KU5      -0.655100
     32 O4         194.0730  -310.3950   689.6660 o          1 KU5      -0.573100
     33 O5         193.6000  -319.1700   693.3990 o          1 KU5      -0.529500
     34 O6         192.2060  -317.4910   692.1930 o          1 KU5      -0.529500
     35 S1         193.5070  -317.9080   692.6850 sy         1 KU5       1.067500
     36 S2         193.0040  -311.0980   686.9330 ss         1 KU5      -0.066000
     37 CL1        194.9720  -310.9360   684.5460 cl         1 KU5      -0.197000
     38 H2         195.4540  -313.8730   696.0830 ha         1 KU5       0.123000
     39 H3         193.1630  -313.7220   695.1630 ha         1 KU5       0.122500
     40 H4         192.3280  -315.4900   693.6340 ha         1 KU5       0.132500
     41 H5         193.4720  -310.0100   692.1690 h1         1 KU5       0.088700
     42 H6         192.5980  -311.6290   694.1990 hc         1 KU5       0.062700
     43 H7         191.5170  -310.4900   693.3900 hc         1 KU5       0.062700
     44 H8         190.3370  -312.6150   693.0780 hc         1 KU5       0.064700
     45 H9         191.8540  -313.4570   692.7460 hc         1 KU5       0.064700
     46 H10        190.3830  -311.5210   690.9290 h1         1 KU5       0.051700
     47 H11        191.2120  -313.0300   690.5120 h1         1 KU5       0.051700
     48 H12        191.2810  -310.9190   688.4880 h1         1 KU5       0.089200
     49 H13        191.9700  -312.5230   688.5740 h1         1 KU5       0.089200
     50 H14        194.0130  -313.2770   688.7280 ha         1 KU5       0.113000
     51 H15        195.9540  -314.7280   688.5330 ha         1 KU5       0.117000
     52 H16        197.4960  -314.5280   686.5960 ha         1 KU5       0.122000
     53 H17        197.0300  -312.8350   684.8390 ha         1 KU5       0.131000
     54 H18        193.5080  -316.9560   689.7960 h1         1 KU5       0.070700
     55 H19        195.2380  -317.0850   689.4820 h1         1 KU5       0.070700
     56 H20        194.4050  -318.9790   690.8480 h1         1 KU5       0.116700
     57 H21        195.6450  -318.0570   691.7120 h1         1 KU5       0.116700
     58 H22        196.0480  -317.5890   694.0390 ha         1 KU5       0.132500
     59 H23        195.3390  -310.4380   693.4570 hn         1 KU5       0.337500
     60 H24        193.8490  -314.9460   690.8290 hn         1 KU5       0.353500
     61 H25        197.8150  -314.8010   692.3410 ho         1 KU5       0.523000
     62 C18        193.0230  -311.0290   689.7410 c          1 KU5       0.606100
     63 H1         196.8930  -315.8070   695.5220 ha         1 KU5       0.122500
@<TRIPOS>BOND
     1     1     6 1   
     2     1    25 1   
     3     1    26 2   
     4     2     3 ar  
     5     2    24 ar  
     6     2    63 1   
     7     3     4 ar  
     8     3    38 1   
     9     4     5 ar  
    10     4    39 1   
    11     5    23 ar  
    12     5    40 1   
    13     6     7 1   
    14     6    28 1   
    15     6    41 1   
    16     7     8 1   
    17     7    42 1   
    18     7    43 1   
    19     8     9 1   
    20     8    44 1   
    21     8    45 1   
    22     9    28 1   
    23     9    46 1   
    24     9    47 1   
    25    10    36 1   
    26    10    48 1   
    27    10    49 1   
    28    10    62 1   
    29    11    18 2   
    30    11    20 1   
    31    11    26 1   
    32    12    13 ar  
    33    12    17 ar  
    34    12    36 1   
    35    13    14 ar  
    36    13    50 1   
    37    14    15 ar  
    38    14    51 1   
    39    15    16 ar  
    40    15    52 1   
    41    16    17 ar  
    42    16    53 1   
    43    17    37 1   
    44    18    19 1   
    45    18    30 1   
    46    19    25 1   
    47    19    29 2   
    48    20    27 1   
    49    20    31 2   
    50    21    22 1   
    51    21    27 1   
    52    21    54 1   
    53    21    55 1   
    54    22    35 1   
    55    22    56 1   
    56    22    57 1   
    57    23    24 ar  
    58    23    35 1   
    59    24    58 1   
    60    25    59 1   
    61    27    60 1   
    62    28    62 1   
    63    30    61 1   
    64    32    62 2   
    65    33    35 2   
    66    34    35 2   
@<TRIPOS>SUBSTRUCTURE
     1 KU5         1 TEMP              0 ****  ****    0 ROOT
