@<TRIPOS>MOLECULE
KU5
   63    66     1     0     0
SMALL
No Charge or Current Charge


@<TRIPOS>ATOM
      1 C1         194.3220  -312.2310   691.8110 cc         1 KU5       0.464900
      2 C10        196.6670  -315.0580   694.9980 ca         1 KU5      -0.127000
      3 C11        195.6810  -314.0640   695.1160 ca         1 KU5      -0.059000
      4 C12        194.3410  -314.3700   694.8250 ca         1 KU5      -0.127000
      5 C13        193.9850  -315.6640   694.4040 ca         1 KU5      -0.016500
      6 C14        192.9240  -311.6030   691.8610 c5         1 KU5       0.080400
      7 C15        191.7760  -312.6000   692.2320 c5         1 KU5      -0.086400
      8 C16        191.2690  -313.0740   690.8470 c5         1 KU5      -0.093400
      9 C17        191.2260  -311.7420   690.0640 c5         1 KU5       0.112000
     10 C19        192.5830  -309.4710   688.5720 c3         1 KU5      -0.066400
     11 C2         195.7720  -314.0910   691.5330 cd         1 KU5      -0.063600
     12 C20        194.1080  -311.6540   687.5470 ca         1 KU5      -0.087000
     13 C21        193.0580  -312.5130   687.1760 ca         1 KU5      -0.108000
     14 C22        193.1890  -313.9030   687.3390 ca         1 KU5      -0.097000
     15 C23        194.3780  -314.4420   687.8580 ca         1 KU5      -0.106000
     16 C24        195.4370  -313.5890   688.2120 ca         1 KU5      -0.089000
     17 C25        195.3030  -312.1980   688.0630 ca         1 KU5       0.130000
     18 C3         196.8590  -313.2390   691.7200 cc         1 KU5       0.090900
     19 C4         196.6940  -311.7870   691.9700 c          1 KU5       0.551200
     20 C5         196.0370  -315.5460   691.2910 c          1 KU5       0.629300
     21 C6         194.7650  -317.7090   691.0040 c3         1 KU5       0.141000
     22 C7         195.3730  -318.5310   692.1600 c3         1 KU5      -0.331400
     23 C8         194.9740  -316.6640   694.2850 ca         1 KU5      -0.264500
     24 C9         196.3170  -316.3570   694.5900 ca         1 KU5      -0.016500
     25 N1         195.3980  -311.4070   691.9890 ns         1 KU5      -0.405400
     26 N2         194.4670  -313.5420   691.5820 nd         1 KU5      -0.614300
     27 N3         194.8750  -316.2650   691.1860 ns         1 KU5      -0.482900
     28 N4         192.4510  -311.0710   690.5520 n          1 KU5      -0.411800
     29 O1         197.5950  -310.9760   692.1460 o          1 KU5      -0.501000
     30 O2         198.1500  -313.6730   691.6890 oh         1 KU5      -0.504100
     31 O3         197.1550  -316.0440   691.2000 o          1 KU5      -0.655100
     32 O4         193.8290  -309.2490   690.6100 o          1 KU5      -0.573100
     33 O5         195.1940  -319.2830   694.6580 o          1 KU5      -0.529500
     34 O6         193.0930  -318.4030   693.5000 o          1 KU5      -0.529500
     35 S1         194.5400  -318.3340   693.7470 sy         1 KU5       1.067500
     36 S2         193.9100  -309.8840   687.3530 ss         1 KU5      -0.066000
     37 Cl1        196.6450  -311.1570   688.5310 cl         1 KU5      -0.197000
     38 H2         195.9540  -313.0610   695.4350 ha         1 KU5       0.123000
     39 H3         193.5780  -313.6020   694.9190 ha         1 KU5       0.122500
     40 H4         192.9430  -315.8810   694.1750 ha         1 KU5       0.132500
     41 H5         192.9480  -310.8000   692.6110 h1         1 KU5       0.088700
     42 H6         192.1000  -313.4250   692.8760 hc         1 KU5       0.062700
     43 H7         190.9760  -312.0780   692.7730 hc         1 KU5       0.062700
     44 H8         190.2900  -313.5620   690.8960 hc         1 KU5       0.064700
     45 H9         191.9650  -313.7810   690.3820 hc         1 KU5       0.064700
     46 H10        190.3340  -311.1530   690.3170 h1         1 KU5       0.051700
     47 H11        191.2290  -311.9220   688.9830 h1         1 KU5       0.051700
     48 H12        192.4270  -308.3870   688.5780 h1         1 KU5       0.089200
     49 H13        191.6440  -309.9470   688.2740 h1         1 KU5       0.089200
     50 H14        192.1390  -312.1040   686.7630 ha         1 KU5       0.113000
     51 H15        192.3710  -314.5630   687.0580 ha         1 KU5       0.117000
     52 H16        194.4810  -315.5180   687.9810 ha         1 KU5       0.122000
     53 H17        196.3620  -314.0040   688.6040 ha         1 KU5       0.131000
     54 H18        193.7050  -317.9690   690.8790 h1         1 KU5       0.070700
     55 H19        195.2790  -317.9740   690.0700 h1         1 KU5       0.070700
     56 H20        195.3020  -319.5960   691.9180 h1         1 KU5       0.116700
     57 H21        196.4270  -318.2800   692.3110 h1         1 KU5       0.116700
     58 H22        197.0910  -317.1180   694.5060 ha         1 KU5       0.132500
     59 H23        195.2310  -310.4170   692.1000 hn         1 KU5       0.337500
     60 H24        194.0330  -315.7060   691.2740 hn         1 KU5       0.353500
     61 H25        198.0940  -314.6500   691.5070 ho         1 KU5       0.523000
     62 C18        192.9950  -309.8960   689.9890 c          1 KU5       0.606100
     63 H1         197.7040  -314.8230   695.2260 ha         1 KU5       0.122500
@<TRIPOS>BOND
     1     1     6 1   
     2     1    25 1   
     3     1    26 2   
     4     2     3 ar  
     5     2    24 ar  
     6     2    63 1   
     7     3     4 ar  
     8     3    38 1   
     9     4     5 ar  
    10     4    39 1   
    11     5    23 ar  
    12     5    40 1   
    13     6     7 1   
    14     6    28 1   
    15     6    41 1   
    16     7     8 1   
    17     7    42 1   
    18     7    43 1   
    19     8     9 1   
    20     8    44 1   
    21     8    45 1   
    22     9    28 1   
    23     9    46 1   
    24     9    47 1   
    25    10    36 1   
    26    10    48 1   
    27    10    49 1   
    28    10    62 1   
    29    11    18 2   
    30    11    20 1   
    31    11    26 1   
    32    12    13 ar  
    33    12    17 ar  
    34    12    36 1   
    35    13    14 ar  
    36    13    50 1   
    37    14    15 ar  
    38    14    51 1   
    39    15    16 ar  
    40    15    52 1   
    41    16    17 ar  
    42    16    53 1   
    43    17    37 1   
    44    18    19 1   
    45    18    30 1   
    46    19    25 1   
    47    19    29 2   
    48    20    27 1   
    49    20    31 2   
    50    21    22 1   
    51    21    27 1   
    52    21    54 1   
    53    21    55 1   
    54    22    35 1   
    55    22    56 1   
    56    22    57 1   
    57    23    24 ar  
    58    23    35 1   
    59    24    58 1   
    60    25    59 1   
    61    27    60 1   
    62    28    62 1   
    63    30    61 1   
    64    32    62 2   
    65    33    35 2   
    66    34    35 2   
@<TRIPOS>SUBSTRUCTURE
     1 KU5         1 TEMP              0 ****  ****    0 ROOT
