@<TRIPOS>MOLECULE
KU6
   37    40     1     0     0
SMALL
No Charge or Current Charge


@<TRIPOS>ATOM
      1 N1           6.8550    -1.2490    18.2000 nc         1 KU6      -0.337000
      2 N3           6.6520     0.7580    19.0580 na         1 KU6      -0.359000
      3 C4           8.8300     0.0960    24.2670 c6         1 KU6       0.158600
      4 C5           8.6670    -1.1890    23.4310 c6         1 KU6      -0.107400
      5 C6           9.5480    -1.0960    22.1600 c6         1 KU6      -0.080400
      6 C7           8.8630    -0.2460    21.0600 c          1 KU6       0.609100
      7 C8           7.2390    -0.4790    19.2050 cd         1 KU6       0.493400
      8 C10          6.3340     1.6740    20.1710 cx         1 KU6      -0.002700
      9 C13         10.9570    -0.5840    22.4930 ca         1 KU6      -0.145300
     10 N            8.0160    -0.9430    20.2330 ns         1 KU6      -0.500400
     11 N2           6.0160    -0.5090    17.3830 nc         1 KU6      -0.355000
     12 C11          6.8980     3.0660    20.3290 cx         1 KU6      -0.124400
     13 C1          13.5560     0.3290    23.1030 ca         1 KU6      -0.060000
     14 O1           9.1260     0.9360    20.9000 o          1 KU6      -0.550100
     15 C2          12.5070     0.5290    24.0180 ca         1 KU6      -0.134000
     16 C9           5.8730     0.6910    17.9300 cd         1 KU6       0.393400
     17 C12          5.4200     2.8780    20.1050 cx         1 KU6      -0.124400
     18 C14         12.0130    -0.7820    21.5800 ca         1 KU6      -0.053000
     19 C           13.3060    -0.3240    21.8850 ca         1 KU6       0.091000
     20 O           10.2110     0.2840    24.6480 os         1 KU6      -0.344100
     21 C3          11.2100     0.0840    23.7150 ca         1 KU6       0.158100
     22 Cl          14.6180    -0.5750    20.7390 cl         1 KU6      -0.207000
     23 H2           8.2130     0.0460    25.1750 h1         1 KU6       0.066200
     24 H3           7.6110    -1.3460    23.1690 hc         1 KU6       0.061700
     25 H4           8.9730    -2.0530    24.0370 hc         1 KU6       0.061700
     26 H5           9.5900    -2.1260    21.7810 hc         1 KU6       0.072700
     27 H6           6.2570     1.0630    21.0730 h1         1 KU6       0.095700
     28 H7           8.0460    -1.9440    20.3570 hn         1 KU6       0.336500
     29 H8           7.2330     3.3630    21.3200 hc         1 KU6       0.088950
     30 H9           7.4900     3.4670    19.5100 hc         1 KU6       0.088950
     31 H10         14.5590     0.6780    23.3370 ha         1 KU6       0.133000
     32 H11         12.6980     1.0310    24.9630 ha         1 KU6       0.134000
     33 H12          5.2300     1.4950    17.5930 h5         1 KU6       0.066100
     34 H13          5.0200     3.1860    19.1430 hc         1 KU6       0.088950
     35 H14          4.7530     3.0510    20.9470 hc         1 KU6       0.088950
     36 H15         11.8350    -1.2920    20.6360 ha         1 KU6       0.130000
     37 H1           8.5020     0.9680    23.6830 h1         1 KU6       0.066200
@<TRIPOS>BOND
     1     1     7 2   
     2     1    11 1   
     3     2     7 1   
     4     2     8 1   
     5     2    16 1   
     6     3     4 1   
     7     3    20 1   
     8     3    23 1   
     9     3    37 1   
    10     4     5 1   
    11     4    24 1   
    12     4    25 1   
    13     5     6 1   
    14     5     9 1   
    15     5    26 1   
    16     6    10 1   
    17     6    14 2   
    18     7    10 1   
    19     8    12 1   
    20     8    17 1   
    21     8    27 1   
    22     9    18 ar  
    23     9    21 ar  
    24    10    28 1   
    25    11    16 2   
    26    12    17 1   
    27    12    29 1   
    28    12    30 1   
    29    13    15 ar  
    30    13    19 ar  
    31    13    31 1   
    32    15    21 ar  
    33    15    32 1   
    34    16    33 1   
    35    17    34 1   
    36    17    35 1   
    37    18    19 ar  
    38    18    36 1   
    39    19    22 1   
    40    20    21 1   
@<TRIPOS>SUBSTRUCTURE
     1 KU6         1 TEMP              0 ****  ****    0 ROOT
