@<TRIPOS>MOLECULE
KU6
   37    40     1     0     0
SMALL
abcg2


@<TRIPOS>ATOM
      1 N1           7.8470    -0.3770    17.7870 nc         1 KU6      -0.337000
      2 N3           6.4170     0.6360    19.1160 na         1 KU6      -0.359000
      3 C4           9.0480     0.9500    23.8120 c6         1 KU6       0.158600
      4 C5           8.6360    -0.4160    23.3050 c6         1 KU6      -0.107400
      5 C6           9.5310    -0.8370    22.1220 c6         1 KU6      -0.080400
      6 C7           9.0850    -0.1080    20.8580 c          1 KU6       0.609100
      7 C8           7.5000    -0.1980    19.0350 cd         1 KU6       0.493400
      8 C10          5.7040     1.0250    20.3060 cx         1 KU6      -0.002700
      9 C13         10.9770    -0.5530    22.4440 ca         1 KU6      -0.145300
     10 N            8.1170    -0.7640    20.1490 ns         1 KU6      -0.500400
     11 N2           6.9700     0.3530    17.0110 nc         1 KU6      -0.355000
     12 C11          6.3330     2.0120    21.2460 cx         1 KU6      -0.124400
     13 C1          13.6730    -0.0770    23.0560 ca         1 KU6      -0.060000
     14 O1           9.5080     0.9860    20.5210 o          1 KU6      -0.550100
     15 C2          12.6720     0.5430    23.7850 ca         1 KU6      -0.134000
     16 C9           6.1280     0.9420    17.8250 cd         1 KU6       0.393400
     17 C12          5.1620     2.4190    20.3940 cx         1 KU6      -0.124400
     18 C14         11.9920    -1.1730    21.7160 ca         1 KU6      -0.053000
     19 C           13.3200    -0.9330    22.0190 ca         1 KU6       0.091000
     20 O           10.4140     0.9520    24.2650 os         1 KU6      -0.344100
     21 C3          11.3270     0.3150    23.4820 ca         1 KU6       0.158100
     22 CL          14.5780    -1.7240    21.0870 cl         1 KU6      -0.207000
     23 H2           8.4590     1.2490    24.6750 h1         1 KU6       0.066200
     24 H3           7.5860    -0.3980    23.0130 hc         1 KU6       0.061700
     25 H4           8.7450    -1.1510    24.1050 hc         1 KU6       0.061700
     26 H5           9.4100    -1.9080    21.9560 hc         1 KU6       0.072700
     27 H6           5.1190     0.2200    20.7270 h1         1 KU6       0.095700
     28 H7           7.8100    -1.6760    20.4560 hn         1 KU6       0.336500
     29 H8           6.1810     1.8470    22.3030 hc         1 KU6       0.088950
     30 H9           7.3040     2.3970    20.9710 hc         1 KU6       0.088950
     31 H10         14.7130     0.1040    23.2900 ha         1 KU6       0.133000
     32 H11         12.9190     1.2150    24.5960 ha         1 KU6       0.134000
     33 H12          5.3130     1.5860    17.5380 h5         1 KU6       0.066100
     34 H13          5.3600     3.0870    19.5670 hc         1 KU6       0.088950
     35 H14          4.1930     2.5360    20.8560 hc         1 KU6       0.088950
     36 H15         11.7310    -1.8510    20.9120 ha         1 KU6       0.130000
     37 H1           8.9440     1.7070    23.0310 h1         1 KU6       0.066200
@<TRIPOS>BOND
     1     1     7 2   
     2     1    11 1   
     3     2     7 1   
     4     2     8 1   
     5     2    16 1   
     6     3     4 1   
     7     3    20 1   
     8     3    23 1   
     9     3    37 1   
    10     4     5 1   
    11     4    24 1   
    12     4    25 1   
    13     5     6 1   
    14     5     9 1   
    15     5    26 1   
    16     6    10 1   
    17     6    14 2   
    18     7    10 1   
    19     8    12 1   
    20     8    17 1   
    21     8    27 1   
    22     9    18 ar  
    23     9    21 ar  
    24    10    28 1   
    25    11    16 2   
    26    12    17 1   
    27    12    29 1   
    28    12    30 1   
    29    13    15 ar  
    30    13    19 ar  
    31    13    31 1   
    32    15    21 ar  
    33    15    32 1   
    34    16    33 1   
    35    17    34 1   
    36    17    35 1   
    37    18    19 ar  
    38    18    36 1   
    39    19    22 1   
    40    20    21 1   
@<TRIPOS>SUBSTRUCTURE
     1 KU6         1 TEMP              0 ****  ****    0 ROOT
