@<TRIPOS>MOLECULE
KU7
   61    64     1     0     0
SMALL
No Charge or Current Charge


@<TRIPOS>ATOM
      1 C1         492.2900   194.0220   558.7250 cc         1 KU7       0.427900
      2 C10        491.4110   192.7660   558.6840 c5         1 KU7       0.089400
      3 C11        492.5650   190.6120   558.2450 c5         1 KU7       0.105000
      4 C13        490.6170   192.9710   555.7600 c3         1 KU7       0.088600
      5 C14        489.6800   197.6670   553.8720 ca         1 KU7      -0.107000
      6 C15        490.9800   197.6890   554.4040 ca         1 KU7      -0.115000
      7 C16        491.5010   196.5450   555.0300 ca         1 KU7       0.136000
      8 C17        490.7300   195.3660   555.1300 ca         1 KU7       0.093100
      9 C18        489.4190   195.3540   554.5990 ca         1 KU7      -0.181000
     10 C19        488.9010   196.5020   553.9720 ca         1 KU7      -0.087000
     11 C2         494.1850   195.2570   558.0100 cd         1 KU7      -0.067600
     12 C20        491.5710   195.7490   551.1670 ca         1 KU7      -0.149000
     13 C21        491.4840   194.4880   551.7780 ca         1 KU7      -0.078000
     14 C22        492.5330   194.0320   552.5940 ca         1 KU7      -0.159000
     15 C23        493.6680   194.8320   552.8080 ca         1 KU7       0.139100
     16 C24        493.7570   196.0960   552.1850 ca         1 KU7      -0.159000
     17 C25        492.7070   196.5520   551.3670 ca         1 KU7      -0.078000
     18 C3         493.7690   196.3140   558.8180 cc         1 KU7       0.091900
     19 C4         492.5380   196.2470   559.6430 c          1 KU7       0.551200
     20 C5         495.3970   195.4490   557.1480 c          1 KU7       0.632300
     21 C6         496.5180   194.3860   555.1700 c3         1 KU7       0.102000
     22 C7         495.8360   195.0910   553.9770 c3         1 KU7       0.135600
     23 C8         492.8290   191.0900   559.6960 c5         1 KU7      -0.092400
     24 C9         491.5640   191.9340   559.9920 c5         1 KU7      -0.083400
     25 N1         493.4170   194.0680   558.0040 nd         1 KU7      -0.577300
     26 N2         491.8840   195.0710   559.5070 ns         1 KU7      -0.413400
     27 N3         495.6440   194.3650   556.3480 ns         1 KU7      -0.447900
     28 N4         491.7780   191.7310   557.6740 n          1 KU7      -0.401800
     29 O1         494.4450   197.4950   558.8920 oh         1 KU7      -0.508100
     30 O2         492.1090   197.1300   560.3760 o          1 KU7      -0.505000
     31 O3         496.0780   196.4710   557.1230 o          1 KU7      -0.665100
     32 O4         494.6460   194.3450   553.6510 os         1 KU7      -0.362100
     33 O5         491.2880   194.2500   555.7290 os         1 KU7      -0.315100
     34 O6         492.0070   191.0120   555.5140 o          1 KU7      -0.580100
     35 H1         490.3650   193.0760   558.5630 h1         1 KU7       0.062700
     36 H2         491.9760   189.6850   558.2300 h1         1 KU7       0.063200
     37 H3         493.5000   190.4360   557.6970 h1         1 KU7       0.063200
     38 H4         489.7240   193.0130   556.3940 h1         1 KU7       0.058200
     39 H5         490.3030   192.6820   554.7490 h1         1 KU7       0.058200
     40 H6         489.2750   198.5520   553.3840 ha         1 KU7       0.127000
     41 H7         491.5870   198.5880   554.3280 ha         1 KU7       0.139000
     42 H8         488.7920   194.4690   554.6580 ha         1 KU7       0.114000
     43 H9         487.8930   196.4880   553.5610 ha         1 KU7       0.120000
     44 H10        490.7570   196.1060   550.5390 ha         1 KU7       0.111000
     45 H11        490.6030   193.8670   551.6260 ha         1 KU7       0.111000
     46 H12        492.4630   193.0610   553.0770 ha         1 KU7       0.126000
     47 H13        494.6220   196.7370   552.3260 ha         1 KU7       0.126000
     48 H14        492.7720   197.5280   550.8920 ha         1 KU7       0.111000
     49 H15        496.7710   193.3550   554.8910 h1         1 KU7       0.070700
     50 H16        497.4500   194.9090   555.4190 h1         1 KU7       0.070700
     51 H17        496.5200   195.1300   553.1200 h1         1 KU7       0.049700
     52 H18        495.5870   196.1180   554.2750 h1         1 KU7       0.049700
     53 H19        492.9580   190.2550   560.3930 hc         1 KU7       0.064700
     54 H20        493.7380   191.7010   559.7500 hc         1 KU7       0.064700
     55 H21        491.6680   192.5540   560.8900 hc         1 KU7       0.062700
     56 H22        490.6920   191.2880   560.1480 hc         1 KU7       0.062700
     57 H23        491.0300   194.9830   560.0400 hn         1 KU7       0.329500
     58 H24        494.9750   193.6100   556.4500 hn         1 KU7       0.354500
     59 H25        495.2100   197.3990   558.2620 ho         1 KU7       0.529000
     60 C12        491.5400   191.8450   556.2850 c          1 KU7       0.607100
     61 F1         492.7570   196.5880   555.5310 f          1 KU7      -0.168000
@<TRIPOS>BOND
     1     1     2 1   
     2     1    25 2   
     3     1    26 1   
     4     2    24 1   
     5     2    28 1   
     6     2    35 1   
     7     3    23 1   
     8     3    28 1   
     9     3    36 1   
    10     3    37 1   
    11     4    33 1   
    12     4    38 1   
    13     4    39 1   
    14     4    60 1   
    15     5     6 ar  
    16     5    10 ar  
    17     5    40 1   
    18     6     7 ar  
    19     6    41 1   
    20     7     8 ar  
    21     7    61 1   
    22     8     9 ar  
    23     8    33 1   
    24     9    10 ar  
    25     9    42 1   
    26    10    43 1   
    27    11    18 2   
    28    11    20 1   
    29    11    25 1   
    30    12    13 ar  
    31    12    17 ar  
    32    12    44 1   
    33    13    14 ar  
    34    13    45 1   
    35    14    15 ar  
    36    14    46 1   
    37    15    16 ar  
    38    15    32 1   
    39    16    17 ar  
    40    16    47 1   
    41    17    48 1   
    42    18    19 1   
    43    18    29 1   
    44    19    26 1   
    45    19    30 2   
    46    20    27 1   
    47    20    31 2   
    48    21    22 1   
    49    21    27 1   
    50    21    49 1   
    51    21    50 1   
    52    22    32 1   
    53    22    51 1   
    54    22    52 1   
    55    23    24 1   
    56    23    53 1   
    57    23    54 1   
    58    24    55 1   
    59    24    56 1   
    60    26    57 1   
    61    27    58 1   
    62    28    60 1   
    63    29    59 1   
    64    34    60 2   
@<TRIPOS>SUBSTRUCTURE
     1 KU7         1 TEMP              0 ****  ****    0 ROOT
