@<TRIPOS>MOLECULE
KU7
   61    64     1     0     0
SMALL
abcg2


@<TRIPOS>ATOM
      1 C1         491.8570   194.0780   558.3770 cc         1 KU7       0.427900
      2 C10        491.2770   192.6810   558.3780 c5         1 KU7       0.089400
      3 C11        492.6740   190.8960   557.4730 c5         1 KU7       0.105000
      4 C13        490.1900   193.2200   555.7000 c3         1 KU7       0.088600
      5 C14        490.1180   198.2840   556.1220 ca         1 KU7      -0.107000
      6 C15        491.3380   197.9090   555.5640 ca         1 KU7      -0.115000
      7 C16        491.5610   196.5810   555.2780 ca         1 KU7       0.136000
      8 C17        490.6120   195.5860   555.5320 ca         1 KU7       0.093100
      9 C18        489.3900   195.9770   556.0730 ca         1 KU7      -0.181000
     10 C19        489.1530   197.3180   556.3700 ca         1 KU7      -0.087000
     11 C2         493.4440   195.6320   557.8430 cd         1 KU7      -0.067600
     12 C20        492.6230   194.1190   550.3710 ca         1 KU7      -0.149000
     13 C21        492.4900   193.1460   551.3610 ca         1 KU7      -0.078000
     14 C22        493.3030   193.1680   552.4840 ca         1 KU7      -0.159000
     15 C23        494.2640   194.1720   552.6290 ca         1 KU7       0.139100
     16 C24        494.4060   195.1490   551.6450 ca         1 KU7      -0.159000
     17 C25        493.5800   195.1140   550.5230 ca         1 KU7      -0.078000
     18 C3         492.8010   196.6390   558.5170 cc         1 KU7       0.091900
     19 C4         491.5460   196.3460   559.2020 c          1 KU7       0.551200
     20 C5         494.6890   195.9310   557.0870 c          1 KU7       0.632300
     21 C6         496.3390   195.0090   555.5150 c3         1 KU7       0.102000
     22 C7         495.8430   195.2310   554.0970 c3         1 KU7       0.135600
     23 C8         493.1000   191.1930   558.9090 c5         1 KU7      -0.092400
     24 C9         491.8540   191.8280   559.5280 c5         1 KU7      -0.083400
     25 N1         492.9660   194.3490   557.7790 nd         1 KU7      -0.577300
     26 N2         491.1610   195.0240   559.0690 ns         1 KU7      -0.413400
     27 N3         495.2410   194.8940   556.4570 ns         1 KU7      -0.447900
     28 N4         491.6530   191.9180   557.1880 n          1 KU7      -0.401800
     29 O1         493.2290   197.9010   558.5760 oh         1 KU7      -0.508100
     30 O2         490.8730   197.1570   559.8260 o          1 KU7      -0.505000
     31 O3         495.1500   197.0910   557.0610 o          1 KU7      -0.665100
     32 O4         495.0180   194.1150   553.7630 os         1 KU7      -0.362100
     33 O5         490.9810   194.3150   555.2260 os         1 KU7      -0.315100
     34 O6         491.5190   191.3550   555.0070 o          1 KU7      -0.580100
     35 H1         490.1940   192.7540   558.4680 h1         1 KU7       0.062700
     36 H2         492.2300   189.9030   557.3730 h1         1 KU7       0.063200
     37 H3         493.4900   190.9790   556.7560 h1         1 KU7       0.063200
     38 H4         489.6450   193.4940   556.5990 h1         1 KU7       0.058200
     39 H5         489.4810   192.9160   554.9300 h1         1 KU7       0.058200
     40 H6         489.9320   199.3230   556.3590 ha         1 KU7       0.127000
     41 H7         492.1200   198.6280   555.3630 ha         1 KU7       0.139000
     42 H8         488.6200   195.2450   556.2670 ha         1 KU7       0.114000
     43 H9         488.2000   197.5990   556.7980 ha         1 KU7       0.120000
     44 H10        491.9850   194.1020   549.4960 ha         1 KU7       0.111000
     45 H11        491.7430   192.3690   551.2630 ha         1 KU7       0.111000
     46 H12        493.1920   192.4290   553.2660 ha         1 KU7       0.126000
     47 H13        495.1440   195.9320   551.7420 ha         1 KU7       0.126000
     48 H14        493.6950   195.8780   549.7630 ha         1 KU7       0.111000
     49 H15        496.9280   194.0940   555.5660 h1         1 KU7       0.070700
     50 H16        496.9710   195.8460   555.8070 h1         1 KU7       0.070700
     51 H17        496.6930   195.3010   553.4120 h1         1 KU7       0.049700
     52 H18        495.2620   196.1540   554.0370 h1         1 KU7       0.049700
     53 H19        493.4150   190.2940   559.4360 hc         1 KU7       0.064700
     54 H20        493.9270   191.9030   558.9140 hc         1 KU7       0.064700
     55 H21        492.0600   192.4270   560.4140 hc         1 KU7       0.062700
     56 H22        491.1200   191.0650   559.7910 hc         1 KU7       0.062700
     57 H23        490.2810   194.7740   559.5060 hn         1 KU7       0.329500
     58 H24        494.7230   194.0280   556.4990 hn         1 KU7       0.354500
     59 H25        494.0610   197.9220   558.0240 ho         1 KU7       0.529000
     60 C12        491.1700   192.0770   555.9430 c          1 KU7       0.607100
     61 F1         492.7520   196.2080   554.7500 f          1 KU7      -0.168000
@<TRIPOS>BOND
     1     1     2 1   
     2     1    25 2   
     3     1    26 1   
     4     2    24 1   
     5     2    28 1   
     6     2    35 1   
     7     3    23 1   
     8     3    28 1   
     9     3    36 1   
    10     3    37 1   
    11     4    33 1   
    12     4    38 1   
    13     4    39 1   
    14     4    60 1   
    15     5     6 ar  
    16     5    10 ar  
    17     5    40 1   
    18     6     7 ar  
    19     6    41 1   
    20     7     8 ar  
    21     7    61 1   
    22     8     9 ar  
    23     8    33 1   
    24     9    10 ar  
    25     9    42 1   
    26    10    43 1   
    27    11    18 2   
    28    11    20 1   
    29    11    25 1   
    30    12    13 ar  
    31    12    17 ar  
    32    12    44 1   
    33    13    14 ar  
    34    13    45 1   
    35    14    15 ar  
    36    14    46 1   
    37    15    16 ar  
    38    15    32 1   
    39    16    17 ar  
    40    16    47 1   
    41    17    48 1   
    42    18    19 1   
    43    18    29 1   
    44    19    26 1   
    45    19    30 2   
    46    20    27 1   
    47    20    31 2   
    48    21    22 1   
    49    21    27 1   
    50    21    49 1   
    51    21    50 1   
    52    22    32 1   
    53    22    51 1   
    54    22    52 1   
    55    23    24 1   
    56    23    53 1   
    57    23    54 1   
    58    24    55 1   
    59    24    56 1   
    60    26    57 1   
    61    27    58 1   
    62    28    60 1   
    63    29    59 1   
    64    34    60 2   
@<TRIPOS>SUBSTRUCTURE
     1 KU7         1 TEMP              0 ****  ****    0 ROOT
