@<TRIPOS>MOLECULE
KU8
   49    52     1     0     0
SMALL
No Charge or Current Charge


@<TRIPOS>ATOM
      1 C1N         -4.4350    -0.6310    -1.8170 c3         1 KU8       0.102000
      2 C1K         -5.9110    -0.6450    -1.3710 c3         1 KU8      -0.138400
      3 C1L         -6.3830    -1.9860    -0.7790 c3         1 KU8       0.167800
      4 N1R         -5.6450    -2.3440     0.4470 n7         1 KU8      -0.874400
      5 C1M         -4.2040    -2.6670     0.2940 c3         1 KU8       0.154800
      6 C1O         -3.3020    -1.4040     0.3490 c3         1 KU8       0.068000
      7 N2B         -3.4810    -0.3660    -0.7100 n          1 KU8      -0.406800
      8 C1T         -2.9350     0.9330    -0.5410 c          1 KU8       0.619700
      9 O1A         -3.3060     1.8750    -1.2310 o          1 KU8      -0.580100
     10 C1W         -1.8220     1.1160     0.4530 ca         1 KU8      -0.186600
     11 C1J         -0.6700     0.3000     0.4100 ca         1 KU8      -0.046000
     12 C1V         -1.8910     2.1490     1.4060 ca         1 KU8       0.210000
     13 F1C         -2.9800     2.9480     1.4760 f          1 KU8      -0.168000
     14 C1G         -0.8470     2.3430     2.3230 ca         1 KU8      -0.155000
     15 C1F          0.2870     1.5150     2.2880 ca         1 KU8      -0.058000
     16 C1U          0.3810     0.4910     1.3280 ca         1 KU8      -0.094300
     17 C1P          1.6210    -0.4030     1.2730 c3         1 KU8      -0.046400
     18 C1X          2.7270     0.0580     0.3390 cc         1 KU8       0.362900
     19 C1Z          3.9810    -0.7230     0.1850 ca         1 KU8      -0.116900
     20 C1H          4.2020    -1.9250     0.9000 ca         1 KU8      -0.107000
     21 C1D          5.3960    -2.6470     0.7380 ca         1 KU8      -0.082000
     22 C1E          6.3880    -2.1830    -0.1370 ca         1 KU8      -0.114000
     23 C1I          6.1880    -0.9940    -0.8540 ca         1 KU8      -0.049000
     24 C2A          4.9910    -0.2640    -0.6960 ca         1 KU8      -0.145600
     25 C1Y          4.7630     1.0110    -1.4570 c          1 KU8       0.552600
     26 O1B          5.5720     1.4900    -2.2400 o          1 KU8      -0.542000
     27 N1S          3.5480     1.6100    -1.1980 ns         1 KU8      -0.236900
     28 N1Q          2.5440     1.1920    -0.3480 nd         1 KU8      -0.408300
     29 H1N         -4.1820    -1.5870    -2.2950 h1         1 KU8       0.057200
     30 H1NA        -4.3140     0.1360    -2.5930 h1         1 KU8       0.057200
     31 H1K         -6.0940     0.1710    -0.6610 hc         1 KU8       0.058700
     32 H1KA        -6.5330    -0.4350    -2.2490 hc         1 KU8       0.058700
     33 H1L         -7.4560    -1.9050    -0.5560 h1         1 KU8       0.049700
     34 H1LA        -6.2720    -2.7740    -1.5380 h1         1 KU8       0.049700
     35 HN1R        -5.7470    -1.5880     1.1370 hn         1 KU8       0.424000
     36 H1M         -3.8910    -3.3200     1.1200 h1         1 KU8       0.053200
     37 H1MA        -4.0150    -3.2240    -0.6350 h1         1 KU8       0.053200
     38 H1O         -3.4390    -0.9270     1.3280 h1         1 KU8       0.047700
     39 H1OA        -2.2680    -1.7630     0.3060 h1         1 KU8       0.047700
     40 H1J         -0.5800    -0.4710    -0.3540 ha         1 KU8       0.122000
     41 H1G         -0.9200     3.1370     3.0620 ha         1 KU8       0.136000
     42 H1F          1.0930     1.6760     3.0010 ha         1 KU8       0.119000
     43 H1P          2.0370    -0.5010     2.2820 hc         1 KU8       0.061200
     44 H1PA         1.3170    -1.4140     0.9800 hc         1 KU8       0.061200
     45 H1H          3.4550    -2.3150     1.5870 ha         1 KU8       0.118000
     46 H1D          5.5520    -3.5700     1.2940 ha         1 KU8       0.119000
     47 H1E          7.3120    -2.7440    -0.2610 ha         1 KU8       0.123000
     48 H1I          6.9630    -0.6400    -1.5320 ha         1 KU8       0.142000
     49 HN1S         3.3970     2.4730    -1.7140 hn         1 KU8       0.357500
@<TRIPOS>BOND
     1     1     2 1   
     2     1     7 1   
     3     1    29 1   
     4     1    30 1   
     5     2     3 1   
     6     2    31 1   
     7     2    32 1   
     8     3     4 1   
     9     3    33 1   
    10     3    34 1   
    11     4     5 1   
    12     4    35 1   
    13     5     6 1   
    14     5    36 1   
    15     5    37 1   
    16     6     7 1   
    17     6    38 1   
    18     6    39 1   
    19     7     8 1   
    20     8     9 2   
    21     8    10 1   
    22    10    11 ar  
    23    10    12 ar  
    24    11    16 ar  
    25    11    40 1   
    26    12    13 1   
    27    12    14 ar  
    28    14    15 ar  
    29    14    41 1   
    30    15    16 ar  
    31    15    42 1   
    32    16    17 1   
    33    17    18 1   
    34    17    43 1   
    35    17    44 1   
    36    18    19 1   
    37    18    28 2   
    38    19    20 ar  
    39    19    24 ar  
    40    20    21 ar  
    41    20    45 1   
    42    21    22 ar  
    43    21    46 1   
    44    22    23 ar  
    45    22    47 1   
    46    23    24 ar  
    47    23    48 1   
    48    24    25 1   
    49    25    26 2   
    50    25    27 1   
    51    27    28 1   
    52    27    49 1   
@<TRIPOS>SUBSTRUCTURE
     1 KU8         1 TEMP              0 ****  ****    0 ROOT
