@<TRIPOS>MOLECULE
KU8
   49    52     1     0     0
SMALL
abcg2


@<TRIPOS>ATOM
      1 C1N         -4.3780    -0.9200    -1.8970 c3         1 KU8       0.102000
      2 C1K         -5.7740    -0.3880    -1.5880 c3         1 KU8      -0.138400
      3 C1L         -6.5400    -1.2190    -0.5610 c3         1 KU8       0.167800
      4 N1R         -5.8610    -1.5320     0.6830 n7         1 KU8      -0.874400
      5 C1M         -4.7140    -2.4040     0.5540 c3         1 KU8       0.154800
      6 C1O         -3.3690    -1.7400     0.2410 c3         1 KU8       0.068000
      7 N2B         -3.4540    -0.7160    -0.7900 n          1 KU8      -0.406800
      8 C1T         -2.7920     0.4530    -0.7240 c          1 KU8       0.619700
      9 O1A         -2.9550     1.3690    -1.5180 o          1 KU8      -0.580100
     10 C1W         -1.7630     0.6060     0.3570 ca         1 KU8      -0.186600
     11 C1J         -0.5750    -0.1160     0.3290 ca         1 KU8      -0.046000
     12 C1V         -1.9210     1.5630     1.3430 ca         1 KU8       0.210000
     13 F1C         -3.0710     2.2530     1.3930 f          1 KU8      -0.168000
     14 C1G         -0.9500     1.8070     2.2920 ca         1 KU8      -0.155000
     15 C1F          0.2300     1.0810     2.2360 ca         1 KU8      -0.058000
     16 C1U          0.4330     0.1130     1.2570 ca         1 KU8      -0.094300
     17 C1P          1.7200    -0.6540     1.1970 c3         1 KU8      -0.046400
     18 C1X          2.7700    -0.0120     0.3290 cc         1 KU8       0.362900
     19 C1Z          4.0820    -0.6150     0.2060 ca         1 KU8      -0.116900
     20 C1H          4.4420    -1.7950     0.8680 ca         1 KU8      -0.107000
     21 C1D          5.7100    -2.3160     0.7120 ca         1 KU8      -0.082000
     22 C1E          6.6450    -1.6770    -0.1050 ca         1 KU8      -0.114000
     23 C1I          6.3050    -0.5160    -0.7660 ca         1 KU8      -0.049000
     24 C2A          5.0260     0.0190    -0.6130 ca         1 KU8      -0.145600
     25 C1Y          4.6580     1.2520    -1.3080 c          1 KU8       0.552600
     26 O1B          5.3990     1.8880    -2.0450 o          1 KU8      -0.542000
     27 N1S          3.3810     1.6560    -1.0640 ns         1 KU8      -0.236900
     28 N1Q          2.4640     1.0710    -0.2870 nd         1 KU8      -0.408300
     29 H1N         -4.4070    -1.9870    -2.1270 h1         1 KU8       0.057200
     30 H1NA        -3.9770    -0.4240    -2.7790 h1         1 KU8       0.057200
     31 H1K         -5.6880     0.6480    -1.2520 hc         1 KU8       0.058700
     32 H1KA        -6.3540    -0.3630    -2.5150 hc         1 KU8       0.058700
     33 H1L         -7.4740    -0.7070    -0.3190 h1         1 KU8       0.049700
     34 H1LA        -6.8260    -2.1700    -1.0200 h1         1 KU8       0.049700
     35 HN1R        -5.6270    -0.6910     1.1960 hn         1 KU8       0.424000
     36 H1M         -4.5630    -2.9620     1.4840 h1         1 KU8       0.053200
     37 H1MA        -4.9500    -3.1550    -0.2030 h1         1 KU8       0.053200
     38 H1O         -2.9910    -1.2820     1.1530 h1         1 KU8       0.047700
     39 H1OA        -2.6540    -2.5190    -0.0410 h1         1 KU8       0.047700
     40 H1J         -0.4360    -0.8740    -0.4340 ha         1 KU8       0.122000
     41 H1G         -1.1110     2.5500     3.0610 ha         1 KU8       0.136000
     42 H1F          1.0000     1.2700     2.9730 ha         1 KU8       0.119000
     43 H1P          2.1240    -0.7730     2.2060 hc         1 KU8       0.061200
     44 H1PA         1.5370    -1.6690     0.8300 hc         1 KU8       0.061200
     45 H1H          3.7350    -2.3060     1.5060 ha         1 KU8       0.118000
     46 H1D          5.9810    -3.2280     1.2260 ha         1 KU8       0.119000
     47 H1E          7.6370    -2.0940    -0.2190 ha         1 KU8       0.123000
     48 H1I          7.0220    -0.0170    -1.4030 ha         1 KU8       0.142000
     49 HN1S         3.0610     2.5040    -1.5120 hn         1 KU8       0.357500
@<TRIPOS>BOND
     1     1     2 1   
     2     1     7 1   
     3     1    29 1   
     4     1    30 1   
     5     2     3 1   
     6     2    31 1   
     7     2    32 1   
     8     3     4 1   
     9     3    33 1   
    10     3    34 1   
    11     4     5 1   
    12     4    35 1   
    13     5     6 1   
    14     5    36 1   
    15     5    37 1   
    16     6     7 1   
    17     6    38 1   
    18     6    39 1   
    19     7     8 1   
    20     8     9 2   
    21     8    10 1   
    22    10    11 ar  
    23    10    12 ar  
    24    11    16 ar  
    25    11    40 1   
    26    12    13 1   
    27    12    14 ar  
    28    14    15 ar  
    29    14    41 1   
    30    15    16 ar  
    31    15    42 1   
    32    16    17 1   
    33    17    18 1   
    34    17    43 1   
    35    17    44 1   
    36    18    19 1   
    37    18    28 2   
    38    19    20 ar  
    39    19    24 ar  
    40    20    21 ar  
    41    20    45 1   
    42    21    22 ar  
    43    21    46 1   
    44    22    23 ar  
    45    22    47 1   
    46    23    24 ar  
    47    23    48 1   
    48    24    25 1   
    49    25    26 2   
    50    25    27 1   
    51    27    28 1   
    52    27    49 1   
@<TRIPOS>SUBSTRUCTURE
     1 KU8         1 TEMP              0 ****  ****    0 ROOT
