@<TRIPOS>MOLECULE
KU9
   61    65     1     0     0
SMALL
abcg2


@<TRIPOS>ATOM
      1 C1          -5.3150     0.9860    -1.0590 c          1 KU9       0.509200
      2 C10          5.0500     1.9970     1.6490 ca         1 KU9      -0.116000
      3 C11          3.8620     1.4560     2.1270 ca         1 KU9      -0.093500
      4 C12          2.6940     1.6710     1.4160 ca         1 KU9      -0.083300
      5 C13          1.3020     1.1980     1.7220 c5         1 KU9      -0.049600
      6 C14         -3.8740    -0.7490    -0.2430 cc         1 KU9       0.458900
      7 C15         -3.7550    -2.2230     0.0470 c5         1 KU9       0.082400
      8 C17          0.0020    -2.4800    -0.1710 c3         1 KU9      -0.079400
      9 C18          2.5690    -1.4900    -0.5240 ca         1 KU9      -0.115000
     10 C19          2.8890    -2.2150     0.6230 ca         1 KU9      -0.123000
     11 C2          -4.2460     1.9100    -0.6890 cc         1 KU9       0.048900
     12 C20          4.1640    -2.1500     1.1690 ca         1 KU9      -0.096000
     13 C21          5.1430    -1.3660     0.5820 ca         1 KU9      -0.104000
     14 C22          4.8460    -0.6440    -0.5640 ca         1 KU9      -0.078000
     15 C23          3.5760    -0.7150    -1.1040 ca         1 KU9       0.129000
     16 C24         -2.1600    -3.1020     1.6360 c5         1 KU9       0.106000
     17 C25         -3.5430    -3.6080     2.0130 c5         1 KU9      -0.091400
     18 C26         -4.4690    -2.5840     1.3670 c5         1 KU9      -0.092400
     19 C3          -3.1020     1.4090    -0.1460 cd         1 KU9       0.029400
     20 C4          -1.9240     2.2630     0.2090 c          1 KU9       0.631300
     21 C5           0.4360     2.1400     0.8710 c5         1 KU9       0.114700
     22 C6           1.3220     2.4950    -0.3400 c5         1 KU9      -0.049600
     23 C7           2.7050     2.4150     0.2390 ca         1 KU9      -0.083300
     24 C8           3.8890     2.9480    -0.2430 ca         1 KU9      -0.093500
     25 C9           5.0640     2.7360     0.4720 ca         1 KU9      -0.116000
     26 N1          -0.8370     1.5540     0.5440 ns         1 KU9      -0.486900
     27 N2          -2.9470     0.0700     0.0850 nd         1 KU9      -0.612300
     28 N3          -2.3750    -2.5890     0.2890 n          1 KU9      -0.403800
     29 N4          -5.0350    -0.3280    -0.8080 ns         1 KU9      -0.388400
     30 O1          -6.3600     1.3690    -1.5620 o          1 KU9      -0.552000
     31 O2          -4.4780     3.1930    -0.9400 oh         1 KU9      -0.469100
     32 O3          -1.9640     3.4840     0.1830 o          1 KU9      -0.582100
     33 O4          -1.7020    -1.9960    -1.7740 o          1 KU9      -0.572100
     34 S1           0.9900    -1.4740    -1.3030 ss         1 KU9      -0.036000
     35 CL1          3.2320     0.1690    -2.5540 cl         1 KU9      -0.182000
     36 H1           5.9710     1.8410     2.1960 ha         1 KU9       0.109000
     37 H2           3.8560     0.8750     3.0410 ha         1 KU9       0.113000
     38 H3           1.1830     0.1600     1.3880 hc         1 KU9       0.061700
     39 H4           1.0440     1.2290     2.7810 hc         1 KU9       0.061700
     40 H5          -4.1700    -2.7920    -0.7910 h1         1 KU9       0.083700
     41 H6           0.1200    -2.1260     0.8540 h1         1 KU9       0.081200
     42 H7           0.3140    -3.5280    -0.1980 h1         1 KU9       0.081200
     43 H8           2.1550    -2.8430     1.1050 ha         1 KU9       0.107000
     44 H9           4.3830    -2.7200     2.0610 ha         1 KU9       0.114000
     45 H10          6.1340    -1.3080     1.0100 ha         1 KU9       0.119000
     46 H11          5.5950    -0.0230    -1.0340 ha         1 KU9       0.132000
     47 H12         -1.8320    -2.3060     2.3130 h1         1 KU9       0.053200
     48 H13         -1.4100    -3.8920     1.6430 h1         1 KU9       0.053200
     49 H14         -3.7070    -4.6000     1.5880 hc         1 KU9       0.062200
     50 H15         -3.6800    -3.6740     3.0910 hc         1 KU9       0.062200
     51 H16         -4.5440    -1.7020     2.0050 hc         1 KU9       0.064200
     52 H17         -5.4760    -2.9570     1.1910 hc         1 KU9       0.064200
     53 H18          0.2540     3.0550     1.4400 h1         1 KU9       0.076700
     54 H19          1.1960     1.7450    -1.1290 hc         1 KU9       0.061700
     55 H20          1.0750     3.4670    -0.7670 hc         1 KU9       0.061700
     56 H21          3.9040     3.5290    -1.1570 ha         1 KU9       0.113000
     57 H22          5.9960     3.1510     0.1100 ha         1 KU9       0.109000
     58 H23         -0.9100     0.5500     0.4710 hn         1 KU9       0.334500
     59 H24         -5.7420    -1.0070    -1.0660 hn         1 KU9       0.336500
     60 H25         -5.3510     3.2660    -1.3580 ho         1 KU9       0.491000
     61 C16         -1.4350    -2.3420    -0.6340 c          1 KU9       0.630100
@<TRIPOS>BOND
     1     1    11 1   
     2     1    29 1   
     3     1    30 2   
     4     2     3 ar  
     5     2    25 ar  
     6     2    36 1   
     7     3     4 ar  
     8     3    37 1   
     9     4     5 1   
    10     4    23 ar  
    11     5    21 1   
    12     5    38 1   
    13     5    39 1   
    14     6     7 1   
    15     6    27 2   
    16     6    29 1   
    17     7    18 1   
    18     7    28 1   
    19     7    40 1   
    20     8    34 1   
    21     8    41 1   
    22     8    42 1   
    23     8    61 1   
    24     9    10 ar  
    25     9    15 ar  
    26     9    34 1   
    27    10    12 ar  
    28    10    43 1   
    29    11    19 2   
    30    11    31 1   
    31    12    13 ar  
    32    12    44 1   
    33    13    14 ar  
    34    13    45 1   
    35    14    15 ar  
    36    14    46 1   
    37    15    35 1   
    38    16    17 1   
    39    16    28 1   
    40    16    47 1   
    41    16    48 1   
    42    17    18 1   
    43    17    49 1   
    44    17    50 1   
    45    18    51 1   
    46    18    52 1   
    47    19    20 1   
    48    19    27 1   
    49    20    26 1   
    50    20    32 2   
    51    21    22 1   
    52    21    26 1   
    53    21    53 1   
    54    22    23 1   
    55    22    54 1   
    56    22    55 1   
    57    23    24 ar  
    58    24    25 ar  
    59    24    56 1   
    60    25    57 1   
    61    26    58 1   
    62    28    61 1   
    63    29    59 1   
    64    31    60 1   
    65    33    61 2   
@<TRIPOS>SUBSTRUCTURE
     1 KU9         1 TEMP              0 ****  ****    0 ROOT
