@<TRIPOS>MOLECULE
KU9
   61    65     1     0     0
SMALL
No Charge or Current Charge


@<TRIPOS>ATOM
      1 C1          -5.2570     0.9400    -1.2230 c          1 KU9       0.509200
      2 C10          4.9730     1.7860     1.5620 ca         1 KU9      -0.116000
      3 C11          3.7460     1.4990     2.1910 ca         1 KU9      -0.093500
      4 C12          2.5510     1.8690     1.5530 ca         1 KU9      -0.083300
      5 C13          1.1540     1.6400     2.0650 c5         1 KU9      -0.049600
      6 C14         -3.8730    -0.7390    -0.1940 cc         1 KU9       0.458900
      7 C15         -3.7180    -2.2140     0.1860 c5         1 KU9       0.082400
      8 C17          0.0400    -2.7070    -0.7420 c3         1 KU9      -0.079400
      9 C18          2.4670    -1.2640    -0.2470 ca         1 KU9      -0.115000
     10 C19          2.7470    -1.9450     0.9540 ca         1 KU9      -0.123000
     11 C2          -4.1770     1.8860    -0.8730 cc         1 KU9       0.048900
     12 C20          4.0770    -2.1250     1.3710 ca         1 KU9      -0.096000
     13 C21          5.1330    -1.6240     0.5920 ca         1 KU9      -0.104000
     14 C22          4.8580    -0.9390    -0.6050 ca         1 KU9      -0.078000
     15 C23          3.5290    -0.7540    -1.0230 ca         1 KU9       0.129000
     16 C24         -1.9500    -3.4380     1.4230 c5         1 KU9       0.106000
     17 C25         -3.3440    -3.7290     2.0330 c5         1 KU9      -0.091400
     18 C26         -4.1180    -2.4360     1.6770 c5         1 KU9      -0.092400
     19 C3          -3.0150     1.4850    -0.2090 cd         1 KU9       0.029400
     20 C4          -1.9210     2.4780     0.1220 c          1 KU9       0.631300
     21 C5           0.3310     2.6050     1.1200 c5         1 KU9       0.114700
     22 C6           1.1860     2.7830    -0.2000 c5         1 KU9      -0.049600
     23 C7           2.5690     2.4960     0.3230 ca         1 KU9      -0.083300
     24 C8           3.7820     2.7890    -0.3200 ca         1 KU9      -0.093500
     25 C9           4.9910     2.4310     0.3080 ca         1 KU9      -0.116000
     26 N1          -0.8630     1.8400     0.7410 ns         1 KU9      -0.486900
     27 N2          -2.8970     0.1130     0.1380 nd         1 KU9      -0.612300
     28 N3          -2.3190    -2.7270     0.1820 n          1 KU9      -0.403800
     29 N4          -5.0030    -0.3290    -0.8440 ns         1 KU9      -0.388400
     30 O1          -6.2890     1.2490    -1.8020 o          1 KU9      -0.552000
     31 O2          -4.4490     3.1590    -1.2710 oh         1 KU9      -0.469100
     32 O3          -1.9230     3.6830    -0.1080 o          1 KU9      -0.582100
     33 O4          -1.9460    -2.3410    -2.0430 o          1 KU9      -0.572100
     34 S1           0.7680    -1.0100    -0.7510 ss         1 KU9      -0.036000
     35 Cl1          3.2200     0.1040    -2.5320 cl         1 KU9      -0.182000
     36 H1           5.9070     1.5040     2.0420 ha         1 KU9       0.109000
     37 H2           3.7240     0.9950     3.1550 ha         1 KU9       0.113000
     38 H3           0.8740     0.5860     1.9600 hc         1 KU9       0.061700
     39 H4           1.0370     1.9080     3.1210 hc         1 KU9       0.061700
     40 H5          -4.3360    -2.8340    -0.4770 h1         1 KU9       0.083700
     41 H6           0.2720    -3.2050     0.2030 h1         1 KU9       0.081200
     42 H7           0.4640    -3.2940    -1.5630 h1         1 KU9       0.081200
     43 H8           1.9370    -2.3220     1.5730 ha         1 KU9       0.107000
     44 H9           4.2880    -2.6480     2.3010 ha         1 KU9       0.114000
     45 H10          6.1620    -1.7620     0.9160 ha         1 KU9       0.119000
     46 H11          5.6740    -0.5460    -1.2060 ha         1 KU9       0.132000
     47 H12         -1.3490    -2.7900     2.0770 h1         1 KU9       0.053200
     48 H13         -1.3920    -4.3640     1.2300 h1         1 KU9       0.053200
     49 H14         -3.8040    -4.6080     1.5650 hc         1 KU9       0.062200
     50 H15         -3.2990    -3.9160     3.1120 hc         1 KU9       0.062200
     51 H16         -3.7910    -1.6030     2.3120 hc         1 KU9       0.064200
     52 H17         -5.2010    -2.5400     1.8090 hc         1 KU9       0.064200
     53 H18          0.1180     3.5670     1.6080 h1         1 KU9       0.076700
     54 H19          0.9130     2.0710    -0.9870 hc         1 KU9       0.061700
     55 H20          1.0870     3.7910    -0.6170 hc         1 KU9       0.061700
     56 H21          3.7890     3.2790    -1.2910 ha         1 KU9       0.113000
     57 H22          5.9400     2.6480    -0.1780 ha         1 KU9       0.109000
     58 H23         -0.9790     0.8420     0.8740 hn         1 KU9       0.334500
     59 H24         -5.7160    -1.0080    -1.0680 hn         1 KU9       0.336500
     60 H25         -5.3320     3.1340    -1.7090 ho         1 KU9       0.491000
     61 C16         -1.4770    -2.6040    -0.9420 c          1 KU9       0.630100
@<TRIPOS>BOND
     1     1    11 1   
     2     1    29 1   
     3     1    30 2   
     4     2     3 ar  
     5     2    25 ar  
     6     2    36 1   
     7     3     4 ar  
     8     3    37 1   
     9     4     5 1   
    10     4    23 ar  
    11     5    21 1   
    12     5    38 1   
    13     5    39 1   
    14     6     7 1   
    15     6    27 2   
    16     6    29 1   
    17     7    18 1   
    18     7    28 1   
    19     7    40 1   
    20     8    34 1   
    21     8    41 1   
    22     8    42 1   
    23     8    61 1   
    24     9    10 ar  
    25     9    15 ar  
    26     9    34 1   
    27    10    12 ar  
    28    10    43 1   
    29    11    19 2   
    30    11    31 1   
    31    12    13 ar  
    32    12    44 1   
    33    13    14 ar  
    34    13    45 1   
    35    14    15 ar  
    36    14    46 1   
    37    15    35 1   
    38    16    17 1   
    39    16    28 1   
    40    16    47 1   
    41    16    48 1   
    42    17    18 1   
    43    17    49 1   
    44    17    50 1   
    45    18    51 1   
    46    18    52 1   
    47    19    20 1   
    48    19    27 1   
    49    20    26 1   
    50    20    32 2   
    51    21    22 1   
    52    21    26 1   
    53    21    53 1   
    54    22    23 1   
    55    22    54 1   
    56    22    55 1   
    57    23    24 ar  
    58    24    25 ar  
    59    24    56 1   
    60    25    57 1   
    61    26    58 1   
    62    28    61 1   
    63    29    59 1   
    64    31    60 1   
    65    33    61 2   
@<TRIPOS>SUBSTRUCTURE
     1 KU9         1 TEMP              0 ****  ****    0 ROOT
