@<TRIPOS>MOLECULE
KUA
   50    54     1     0     0
SMALL
No Charge or Current Charge


@<TRIPOS>ATOM
      1 C5           4.5430     0.8130    -0.2340 c6         1 KUA       0.072000
      2 C6           3.4580     1.3760    -1.1800 c6         1 KUA       0.071500
      3 C8           1.2020     1.6760    -0.0790 c          1 KUA       0.615700
      4 C10         -0.8850     0.5960    -1.0960 ca         1 KUA      -0.087000
      5 C13         -4.4420     0.2080     0.1870 cc         1 KUA       0.587200
      6 C15         -6.2810    -0.6300    -0.4610 ca         1 KUA       0.030100
      7 C20         -8.7730    -0.7270     0.7530 ca         1 KUA      -0.126000
      8 C21         -7.6950    -0.0960     1.4140 ca         1 KUA      -0.045000
      9 C22         -2.3930     1.2620     1.1720 ca         1 KUA      -0.075500
     10 C26          3.0830    -1.2420     0.0670 c6         1 KUA       0.072000
     11 C28          7.6440    -0.5380    -0.6240 cx         1 KUA      -0.118900
     12 O1           7.1860     0.3990     1.5970 oh         1 KUA      -0.620000
     13 C2           6.9000    -0.6520     0.6950 cx         1 KUA       0.018000
     14 C3           5.5360    -1.3810     0.6050 c          1 KUA       0.610100
     15 N4           4.4630    -0.6650     0.0110 n          1 KUA      -0.396800
     16 N7           2.1050     0.8900    -0.8340 n          1 KUA      -0.407800
     17 C9          -0.2560     1.2640    -0.0220 ca         1 KUA      -0.125600
     18 C11         -2.2450     0.2480    -1.0280 ca         1 KUA      -0.075500
     19 C12         -3.0170     0.5700     0.1100 ca         1 KUA      -0.104900
     20 O14         -5.0030    -0.4810    -0.8840 os         1 KUA      -0.278700
     21 C16         -6.4500    -0.0660     0.7700 ca         1 KUA       0.057400
     22 N17         -5.2690     0.4860     1.2140 nd         1 KUA      -0.567100
     23 C18         -7.3230    -1.2640    -1.1480 ca         1 KUA      -0.092000
     24 C19         -8.5880    -1.3100    -0.5240 ca         1 KUA      -0.091000
     25 C23         -1.0330     1.6110     1.1020 ca         1 KUA      -0.087000
     26 O24          1.5740     2.7180     0.4470 o          1 KUA      -0.588100
     27 C25          2.0420    -0.5900    -0.8770 c6         1 KUA       0.071500
     28 O27          5.3820    -2.5190     1.0350 o          1 KUA      -0.596100
     29 C29          8.1110    -1.5260     0.4090 cx         1 KUA      -0.118900
     30 H1           5.5200     1.0830    -0.6570 h1         1 KUA       0.071700
     31 H2           4.4600     1.3260     0.7350 h1         1 KUA       0.071700
     32 H3           3.4920     2.4750    -1.1700 h1         1 KUA       0.066200
     33 H4           3.6890     1.0620    -2.2080 h1         1 KUA       0.066200
     34 H5          -0.3270     0.3590    -2.0000 ha         1 KUA       0.128500
     35 H6          -9.7500    -0.7650     1.2300 ha         1 KUA       0.119000
     36 H7          -7.8250     0.3550     2.3950 ha         1 KUA       0.134000
     37 H8          -2.9620     1.5350     2.0590 ha         1 KUA       0.137500
     38 H9           3.1240    -2.3180    -0.1570 h1         1 KUA       0.071700
     39 H10          2.7190    -1.1470     1.0990 h1         1 KUA       0.071700
     40 H11          7.1640    -0.9310    -1.5180 hc         1 KUA       0.087200
     41 H12          8.2540     0.3470    -0.7930 hc         1 KUA       0.087200
     42 H13          7.0940     0.0320     2.5060 ho         1 KUA       0.458000
     43 H14         -2.6950    -0.2700    -1.8730 ha         1 KUA       0.137500
     44 H15         -7.1610    -1.7060    -2.1290 ha         1 KUA       0.134000
     45 H16         -9.4230    -1.7940    -1.0260 ha         1 KUA       0.119000
     46 H17         -0.5800     2.1460     1.9340 ha         1 KUA       0.128500
     47 H18          2.2350    -0.9220    -1.9070 h1         1 KUA       0.066200
     48 H19          1.0490    -0.9620    -0.5970 h1         1 KUA       0.066200
     49 H20          7.9530    -2.5820     0.2020 hc         1 KUA       0.087200
     50 H21          9.0390    -1.3070     0.9320 hc         1 KUA       0.087200
@<TRIPOS>BOND
     1     1     2 1   
     2     1    15 1   
     3     1    30 1   
     4     1    31 1   
     5     2    16 1   
     6     2    32 1   
     7     2    33 1   
     8     3    16 1   
     9     3    17 1   
    10     3    26 2   
    11     4    17 ar  
    12     4    18 ar  
    13     4    34 1   
    14     5    19 1   
    15     5    20 1   
    16     5    22 2   
    17     6    20 1   
    18     6    21 ar  
    19     6    23 ar  
    20     7     8 ar  
    21     7    24 ar  
    22     7    35 1   
    23     8    21 ar  
    24     8    36 1   
    25     9    19 ar  
    26     9    25 ar  
    27     9    37 1   
    28    10    15 1   
    29    10    27 1   
    30    10    38 1   
    31    10    39 1   
    32    11    13 1   
    33    11    29 1   
    34    11    40 1   
    35    11    41 1   
    36    12    13 1   
    37    12    42 1   
    38    13    14 1   
    39    13    29 1   
    40    14    15 1   
    41    14    28 2   
    42    16    27 1   
    43    17    25 ar  
    44    18    19 ar  
    45    18    43 1   
    46    21    22 1   
    47    23    24 ar  
    48    23    44 1   
    49    24    45 1   
    50    25    46 1   
    51    27    47 1   
    52    27    48 1   
    53    29    49 1   
    54    29    50 1   
@<TRIPOS>SUBSTRUCTURE
     1 KUA         1 TEMP              0 ****  ****    0 ROOT
