@<TRIPOS>MOLECULE
KUA
   50    54     1     0     0
SMALL
abcg2


@<TRIPOS>ATOM
      1 C5           4.4730     0.9620     0.4590 c6         1 KUA       0.072000
      2 C6           3.5470     1.3670    -0.6810 c6         1 KUA       0.071500
      3 C8           1.2020     1.8390    -0.2280 c          1 KUA       0.615700
      4 C10         -0.7620     0.5620    -1.1470 ca         1 KUA      -0.087000
      5 C13         -4.2880     0.2040     0.0750 cc         1 KUA       0.587200
      6 C15         -6.0970    -0.7560    -0.5700 ca         1 KUA       0.030100
      7 C20         -8.5550    -0.8280     0.5880 ca         1 KUA      -0.126000
      8 C21         -7.5570    -0.1190     1.2380 ca         1 KUA      -0.045000
      9 C22         -2.3270     1.3610     1.0000 ca         1 KUA      -0.075500
     10 C26          3.0040    -0.8870     0.9600 c6         1 KUA       0.072000
     11 C28          7.1970    -0.5140    -1.1300 cx         1 KUA      -0.118900
     12 O1           7.1810    -0.0160     1.2660 oh         1 KUA      -0.620000
     13 C2           6.7370    -0.8570     0.2530 cx         1 KUA       0.018000
     14 C3           5.3250    -1.3810     0.4190 c          1 KUA       0.610100
     15 N4           4.3660    -0.4680     0.6910 n          1 KUA      -0.396800
     16 N7           2.1820     0.9350    -0.4350 n          1 KUA      -0.407800
     17 C9          -0.2030     1.3330    -0.1320 ca         1 KUA      -0.125600
     18 C11         -2.0960     0.1960    -1.0970 ca         1 KUA      -0.075500
     19 C12         -2.8870     0.5860    -0.0170 ca         1 KUA      -0.104900
     20 O14         -4.8010    -0.5580    -0.9160 os         1 KUA      -0.278700
     21 C16         -6.3050    -0.0910     0.6340 ca         1 KUA       0.057400
     22 N17         -5.1200     0.5090     1.0100 nd         1 KUA      -0.567100
     23 C18         -7.0720    -1.4700    -1.2360 ca         1 KUA      -0.092000
     24 C19         -8.3180    -1.4910    -0.6230 ca         1 KUA      -0.091000
     25 C23         -1.0000     1.7440     0.9330 ca         1 KUA      -0.087000
     26 O24          1.4020     3.0440    -0.1580 o          1 KUA      -0.588100
     27 C25          2.0720    -0.4930    -0.1790 c6         1 KUA       0.071500
     28 O27          5.0880    -2.5780     0.3420 o          1 KUA      -0.596100
     29 C29          7.7270    -1.7350    -0.4360 cx         1 KUA      -0.118900
     30 H1           5.4870     1.2500     0.2040 h1         1 KUA       0.071700
     31 H2           4.1970     1.4970     1.3730 h1         1 KUA       0.071700
     32 H3           3.5770     2.4440    -0.8190 h1         1 KUA       0.066200
     33 H4           3.8920     0.8990    -1.6080 h1         1 KUA       0.066200
     34 H5          -0.1620     0.2500    -1.9920 ha         1 KUA       0.128500
     35 H6          -9.5440    -0.8730     1.0240 ha         1 KUA       0.119000
     36 H7          -7.7430     0.3910     2.1730 ha         1 KUA       0.134000
     37 H8          -2.9340     1.6710     1.8390 ha         1 KUA       0.137500
     38 H9           2.9650    -1.9620     1.1100 h1         1 KUA       0.071700
     39 H10          2.6670    -0.4040     1.8820 h1         1 KUA       0.071700
     40 H11          6.5030    -0.6460    -1.9510 hc         1 KUA       0.087200
     41 H12          7.8510     0.3440    -1.2250 hc         1 KUA       0.087200
     42 H13          7.3400    -0.5480     2.0530 ho         1 KUA       0.458000
     43 H14         -2.5090    -0.3930    -1.9050 ha         1 KUA       0.137500
     44 H15         -6.8850    -1.9800    -2.1710 ha         1 KUA       0.134000
     45 H16         -9.1260    -2.0350    -1.0930 ha         1 KUA       0.119000
     46 H17         -0.5820     2.3550     1.7220 ha         1 KUA       0.128500
     47 H18          2.3340    -1.0460    -1.0860 h1         1 KUA       0.066200
     48 H19          1.0550    -0.7600     0.0930 h1         1 KUA       0.066200
     49 H20          7.4070    -2.7070    -0.7840 hc         1 KUA       0.087200
     50 H21          8.7450    -1.6990    -0.0700 hc         1 KUA       0.087200
@<TRIPOS>BOND
     1     1     2 1   
     2     1    15 1   
     3     1    30 1   
     4     1    31 1   
     5     2    16 1   
     6     2    32 1   
     7     2    33 1   
     8     3    16 1   
     9     3    17 1   
    10     3    26 2   
    11     4    17 ar  
    12     4    18 ar  
    13     4    34 1   
    14     5    19 1   
    15     5    20 1   
    16     5    22 2   
    17     6    20 1   
    18     6    21 ar  
    19     6    23 ar  
    20     7     8 ar  
    21     7    24 ar  
    22     7    35 1   
    23     8    21 ar  
    24     8    36 1   
    25     9    19 ar  
    26     9    25 ar  
    27     9    37 1   
    28    10    15 1   
    29    10    27 1   
    30    10    38 1   
    31    10    39 1   
    32    11    13 1   
    33    11    29 1   
    34    11    40 1   
    35    11    41 1   
    36    12    13 1   
    37    12    42 1   
    38    13    14 1   
    39    13    29 1   
    40    14    15 1   
    41    14    28 2   
    42    16    27 1   
    43    17    25 ar  
    44    18    19 ar  
    45    18    43 1   
    46    21    22 1   
    47    23    24 ar  
    48    23    44 1   
    49    24    45 1   
    50    25    46 1   
    51    27    47 1   
    52    27    48 1   
    53    29    49 1   
    54    29    50 1   
@<TRIPOS>SUBSTRUCTURE
     1 KUA         1 TEMP              0 ****  ****    0 ROOT
