@<TRIPOS>MOLECULE
KUB
   41    43     1     0     0
SMALL
abcg2


@<TRIPOS>ATOM
      1 C5          31.3670    12.2400    21.2810 cc         1 KUB       0.484900
      2 C6          30.1680    12.4340    20.6570 cd         1 KUB      -0.279000
      3 C8          30.4540    10.3030    21.7780 cd         1 KUB       0.416300
      4 C11         29.6610    14.9410    23.1440 ca         1 KUB       0.073000
      5 C12         28.7280    14.6110    24.0980 ca         1 KUB      -0.003000
      6 C16         28.2170    12.2670    26.9850 c3         1 KUB       0.282800
      7 C18         26.9530    12.1710    27.8380 c3         1 KUB      -0.102100
      8 C19         28.4920    10.9710    26.2370 ca         1 KUB      -0.130300
      9 C21         29.7200     8.9150    26.0310 ca         1 KUB       0.162000
     10 C23         29.0220     8.5440    24.8980 ca         1 KUB      -0.119000
     11 C24         28.0360     9.4020    24.4260 ca         1 KUB      -0.125000
     12 C27         30.3780    13.3430    25.3120 ca         1 KUB      -0.249000
     13 S2          32.0980    14.7140    21.9280 sy         1 KUB       1.198600
     14 O3          33.3690    15.2200    22.3790 o          1 KUB      -0.532000
     15 N4          32.4190    13.1710    21.3800 nu         1 KUB      -0.810000
     16 S7          29.1800    11.0490    20.8960 ss         1 KUB       0.000600
     17 N9          31.5250    11.0330    21.9130 nc         1 KUB      -0.653000
     18 C10         30.9750    14.4850    23.2560 ca         1 KUB      -0.418500
     19 C14         29.0440    13.7780    25.1990 ca         1 KUB       0.414000
     20 N15         28.0950    13.4220    26.0990 nu         1 KUB      -0.935200
     21 C20         29.4800    10.1010    26.6980 ca         1 KUB      -0.115000
     22 C25         27.7880    10.5820    25.1030 ca         1 KUB       0.161000
     23 F26         26.8070    11.3890    24.6210 f          1 KUB      -0.179000
     24 C28         31.2980    13.6950    24.3570 ca         1 KUB       0.311000
     25 F29         32.5550    13.2240    24.4820 f          1 KUB      -0.163000
     26 H1          29.8270    13.2920    20.1060 h4         1 KUB       0.188000
     27 H2          30.3450     9.3110    22.1890 h5         1 KUB       0.054100
     28 H3          29.3750    15.5330    22.2870 ha         1 KUB       0.158000
     29 H4          29.0640    12.4380    27.6520 h1         1 KUB       0.072700
     30 H5          27.0410    11.3410    28.5370 hc         1 KUB       0.055367
     31 H6          26.8120    13.0940    28.4020 hc         1 KUB       0.055367
     32 H7          26.0760    12.0040    27.2100 hc         1 KUB       0.055367
     33 H8          29.2450     7.6130    24.3940 ha         1 KUB       0.141000
     34 H9          27.4620     9.1620    23.5420 ha         1 KUB       0.139000
     35 H10         30.6970    12.7200    26.1340 ha         1 KUB       0.141000
     36 H11         33.2420    12.7880    21.8340 hn         1 KUB       0.510000
     37 H12         27.1500    13.6790    25.8540 hn         1 KUB       0.500000
     38 H13         30.0660    10.3570    27.5720 ha         1 KUB       0.139000
     39 CL1         27.0880    15.1860    23.9150 cl         1 KUB      -0.199000
     40 O1          31.3880    15.4140    20.8890 o          1 KUB      -0.532000
     41 F22         30.6850     8.0890    26.5070 f          1 KUB      -0.171000
@<TRIPOS>BOND
     1     1     2 2   
     2     1    15 1   
     3     1    17 1   
     4     2    16 1   
     5     2    26 1   
     6     3    16 1   
     7     3    17 2   
     8     3    27 1   
     9     4     5 ar  
    10     4    18 ar  
    11     4    28 1   
    12     5    19 ar  
    13     5    39 1   
    14     6     7 1   
    15     6     8 1   
    16     6    20 1   
    17     6    29 1   
    18     7    30 1   
    19     7    31 1   
    20     7    32 1   
    21     8    21 ar  
    22     8    22 ar  
    23     9    10 ar  
    24     9    21 ar  
    25     9    41 1   
    26    10    11 ar  
    27    10    33 1   
    28    11    22 ar  
    29    11    34 1   
    30    12    19 ar  
    31    12    24 ar  
    32    12    35 1   
    33    13    14 2   
    34    13    15 1   
    35    13    18 1   
    36    13    40 2   
    37    15    36 1   
    38    18    24 ar  
    39    19    20 1   
    40    20    37 1   
    41    21    38 1   
    42    22    23 1   
    43    24    25 1   
@<TRIPOS>SUBSTRUCTURE
     1 KUB         1 TEMP              0 ****  ****    0 ROOT
