@<TRIPOS>MOLECULE
KUB
   41    43     1     0     0
SMALL
No Charge or Current Charge


@<TRIPOS>ATOM
      1 C5          31.7950    12.0890    21.5320 cc         1 KUB       0.484900
      2 C6          30.4940    11.9140    21.1640 cd         1 KUB      -0.279000
      3 C8          31.6110    10.0160    22.1890 cd         1 KUB       0.416300
      4 C11         29.5140    14.6610    23.0140 ca         1 KUB       0.073000
      5 C12         28.6080    14.3750    24.0480 ca         1 KUB      -0.003000
      6 C16         28.2210    12.2570    27.0460 c3         1 KUB       0.282800
      7 C18         27.0740    12.2240    28.0740 c3         1 KUB      -0.102100
      8 C19         28.2270    11.0590    26.0910 ca         1 KUB      -0.130300
      9 C21         29.4150     9.1260    25.1730 ca         1 KUB       0.162000
     10 C23         28.3320     8.8420    24.3290 ca         1 KUB      -0.119000
     11 C24         27.1970     9.6700    24.3520 ca         1 KUB      -0.125000
     12 C27         30.4450    13.6110    25.4450 ca         1 KUB      -0.249000
     13 S2          32.0290    14.6960    21.8580 sy         1 KUB       1.198600
     14 O3          33.2510    15.3230    22.3620 o          1 KUB      -0.532000
     15 N4          32.5520    13.1830    21.4070 nu         1 KUB      -0.810000
     16 S7          29.9790    10.2910    21.5740 ss         1 KUB       0.000600
     17 N9          32.4440    11.0480    22.0950 nc         1 KUB      -0.653000
     18 C10         30.8900    14.4120    23.1970 ca         1 KUB      -0.418500
     19 C14         29.0760    13.8360    25.2650 ca         1 KUB       0.414000
     20 N15         28.1790    13.5060    26.2830 nu         1 KUB      -0.935200
     21 C20         29.3670    10.2240    26.0470 ca         1 KUB      -0.115000
     22 C25         27.1450    10.7720    25.2230 ca         1 KUB       0.161000
     23 F26         26.0430    11.5550    25.2020 f          1 KUB      -0.179000
     24 C28         31.3480    13.8940    24.4170 ca         1 KUB       0.311000
     25 F29         32.6570    13.6280    24.6160 f          1 KUB      -0.163000
     26 H1          29.8260    12.6200    20.6910 h4         1 KUB       0.188000
     27 H2          31.8680     9.0510    22.6070 h5         1 KUB       0.054100
     28 H3          29.1330    15.0590    22.0750 ha         1 KUB       0.158000
     29 H4          29.1540    12.2300    27.6270 h1         1 KUB       0.072700
     30 H5          27.0940    11.2810    28.6320 hc         1 KUB       0.055367
     31 H6          27.1850    13.0450    28.7930 hc         1 KUB       0.055367
     32 H7          26.0920    12.3210    27.5990 hc         1 KUB       0.055367
     33 H8          28.3770     7.9890    23.6550 ha         1 KUB       0.141000
     34 H9          26.3570     9.4640    23.6930 ha         1 KUB       0.139000
     35 H10         30.8170    13.2060    26.3790 ha         1 KUB       0.141000
     36 H11         33.4270    13.0730    21.8900 hn         1 KUB       0.510000
     37 H12         27.2340    13.8290    26.0720 hn         1 KUB       0.500000
     38 H13         30.2220    10.4220    26.6900 ha         1 KUB       0.139000
     39 Cl1         26.8840    14.6750    23.7860 cl         1 KUB      -0.199000
     40 O1          31.3140    15.2040    20.6860 o          1 KUB      -0.532000
     41 F22         30.5140     8.3420    25.1400 f          1 KUB      -0.171000
@<TRIPOS>BOND
     1     1     2 2   
     2     1    15 1   
     3     1    17 1   
     4     2    16 1   
     5     2    26 1   
     6     3    16 1   
     7     3    17 2   
     8     3    27 1   
     9     4     5 ar  
    10     4    18 ar  
    11     4    28 1   
    12     5    19 ar  
    13     5    39 1   
    14     6     7 1   
    15     6     8 1   
    16     6    20 1   
    17     6    29 1   
    18     7    30 1   
    19     7    31 1   
    20     7    32 1   
    21     8    21 ar  
    22     8    22 ar  
    23     9    10 ar  
    24     9    21 ar  
    25     9    41 1   
    26    10    11 ar  
    27    10    33 1   
    28    11    22 ar  
    29    11    34 1   
    30    12    19 ar  
    31    12    24 ar  
    32    12    35 1   
    33    13    14 2   
    34    13    15 1   
    35    13    18 1   
    36    13    40 2   
    37    15    36 1   
    38    18    24 ar  
    39    19    20 1   
    40    20    37 1   
    41    21    38 1   
    42    22    23 1   
    43    24    25 1   
@<TRIPOS>SUBSTRUCTURE
     1 KUB         1 TEMP              0 ****  ****    0 ROOT
