@<TRIPOS>MOLECULE
KUC
   45    49     1     0     0
SMALL
No Charge or Current Charge


@<TRIPOS>ATOM
      1 C01         29.6280    10.3150    82.5000 ca         1 KUC      -0.276600
      2 C02         30.2980     9.1110    82.1790 ca         1 KUC       0.225100
      3 C03         30.3080     8.6490    80.8570 ca         1 KUC      -0.168000
      4 C04         29.6480     9.3570    79.8430 ca         1 KUC       0.007000
      5 C05         28.9350    10.5320    80.1480 ca         1 KUC      -0.216600
      6 C06         28.9400    11.0080    81.4790 ca         1 KUC       0.021000
      7 O07         30.9050     8.3330    83.1220 oh         1 KUC      -0.517100
      8 C08         29.5550    10.8850    83.8950 c          1 KUC       0.623700
      9 O09         28.4990    11.3310    84.3260 o          1 KUC      -0.490100
     10 N10         30.6880    10.7440    84.7360 n          1 KUC      -0.152200
     11 C11         28.2300    11.2750    79.0340 c          1 KUC       0.638700
     12 O12         28.6810    11.2510    77.8930 o          1 KUC      -0.501100
     13 N13         27.1360    12.1190    79.3640 n          1 KUC      -0.139200
     14 C14         26.7690    13.2640    78.6390 cc         1 KUC      -0.129400
     15 C15         25.5620    13.7820    79.2520 ca         1 KUC      -0.139000
     16 C16         25.2120    12.9500    80.2950 ca         1 KUC      -0.067000
     17 C17         26.1830    11.8810    80.3730 cc         1 KUC      -0.187400
     18 C18         24.7930    14.9090    78.9320 ca         1 KUC       0.210000
     19 C19         23.6450    15.1790    79.7040 ca         1 KUC      -0.167000
     20 C20         23.2860    14.3230    80.7740 ca         1 KUC      -0.091000
     21 C21         24.0750    13.1910    81.0770 ca         1 KUC      -0.090000
     22 C22         32.0290    10.7950    84.3160 cc         1 KUC      -0.170400
     23 C23         32.8430    10.6640    85.5040 ca         1 KUC      -0.095000
     24 C24         32.0060    10.5690    86.5980 ca         1 KUC      -0.077000
     25 C25         30.6380    10.6350    86.1350 cc         1 KUC      -0.156400
     26 C26         34.2380    10.6380    85.6390 ca         1 KUC      -0.050000
     27 C27         34.7720    10.5060    86.9400 ca         1 KUC      -0.141000
     28 C28         33.9110    10.4070    88.0580 ca         1 KUC       0.165000
     29 C29         32.5110    10.4390    87.8980 ca         1 KUC      -0.121000
     30 F30         25.1420    15.7190    77.9080 f          1 KUC      -0.178000
     31 F31         34.4380    10.2820    89.2960 f          1 KUC      -0.182000
     32 H1          30.8280     7.7250    80.6160 ha         1 KUC       0.147000
     33 H2          29.6740     8.9760    78.8230 ha         1 KUC       0.142000
     34 H3          28.4370    11.9420    81.7250 ha         1 KUC       0.145000
     35 H4          31.0110     8.8540    83.9460 ho         1 KUC       0.488000
     36 H5          27.3890    13.5610    77.7970 h4         1 KUC       0.243000
     37 H6          26.2710    10.9780    80.9690 h4         1 KUC       0.229000
     38 H7          23.0340    16.0490    79.4730 ha         1 KUC       0.128000
     39 H8          22.3980    14.5360    81.3650 ha         1 KUC       0.113000
     40 H9          23.8080    12.5250    81.8950 ha         1 KUC       0.118000
     41 H10         32.2400    10.9680    83.2630 h4         1 KUC       0.231000
     42 H11         29.6640    10.6230    86.6170 h4         1 KUC       0.241000
     43 H12         34.8870    10.7180    84.7700 ha         1 KUC       0.120000
     44 H13         35.8480    10.4810    87.0850 ha         1 KUC       0.130000
     45 H14         31.8480    10.3650    88.7560 ha         1 KUC       0.135000
@<TRIPOS>BOND
     1     1     2 ar  
     2     1     6 ar  
     3     1     8 1   
     4     2     3 ar  
     5     2     7 1   
     6     3     4 ar  
     7     3    32 1   
     8     4     5 ar  
     9     4    33 1   
    10     5     6 ar  
    11     5    11 1   
    12     6    34 1   
    13     7    35 1   
    14     8     9 2   
    15     8    10 1   
    16    10    22 1   
    17    10    25 1   
    18    11    12 2   
    19    11    13 1   
    20    13    14 1   
    21    13    17 1   
    22    14    15 2   
    23    14    36 1   
    24    15    16 ar  
    25    15    18 ar  
    26    16    17 2   
    27    16    21 ar  
    28    17    37 1   
    29    18    19 ar  
    30    18    30 1   
    31    19    20 ar  
    32    19    38 1   
    33    20    21 ar  
    34    20    39 1   
    35    21    40 1   
    36    22    23 2   
    37    22    41 1   
    38    23    24 ar  
    39    23    26 ar  
    40    24    25 2   
    41    24    29 ar  
    42    25    42 1   
    43    26    27 ar  
    44    26    43 1   
    45    27    28 ar  
    46    27    44 1   
    47    28    29 ar  
    48    28    31 1   
    49    29    45 1   
@<TRIPOS>SUBSTRUCTURE
     1 KUC         1 TEMP              0 ****  ****    0 ROOT
