@<TRIPOS>MOLECULE
KUC
   45    49     1     0     0
SMALL
bcc


@<TRIPOS>ATOM
      1 C01         29.3820     9.7680    82.6060 ca         1 KUC      -0.276600
      2 C02         29.9970     8.5960    82.1470 ca         1 KUC       0.225100
      3 C03         30.1070     8.3820    80.7700 ca         1 KUC      -0.186000
      4 C04         29.6350     9.3150    79.8770 ca         1 KUC      -0.011000
      5 C05         28.9840    10.4680    80.3280 ca         1 KUC      -0.216600
      6 C06         28.8530    10.6730    81.6940 ca         1 KUC       0.003000
      7 O07         30.5020     7.6440    82.9330 oh         1 KUC      -0.478100
      8 C08         29.2400    10.1060    84.0500 c          1 KUC       0.690700
      9 O09         28.1760    10.2450    84.5920 o          1 KUC      -0.490100
     10 N10         30.4360    10.3030    84.7520 n          1 KUC      -0.219200
     11 C11         28.5910    11.4900    79.3420 c          1 KUC       0.705700
     12 O12         29.2100    11.7020    78.3320 o          1 KUC      -0.501100
     13 N13         27.4470    12.2650    79.6370 n          1 KUC      -0.206200
     14 C14         27.2710    13.5390    79.1660 cc         1 KUC      -0.079400
     15 C15         26.0320    13.9490    79.5950 ca         1 KUC      -0.139000
     16 C16         25.4300    12.8650    80.3260 ca         1 KUC      -0.067000
     17 C17         26.3440    11.8370    80.3350 cc         1 KUC      -0.137400
     18 C18         25.3060    15.1550    79.4570 ca         1 KUC       0.174900
     19 C19         24.0640    15.2820    79.9760 ca         1 KUC      -0.185000
     20 C20         23.4700    14.1860    80.6820 ca         1 KUC      -0.109000
     21 C21         24.1200    13.0050    80.8630 ca         1 KUC      -0.108000
     22 C22         31.6760    10.4690    84.1780 cc         1 KUC      -0.120400
     23 C23         32.5570    10.7420    85.1930 ca         1 KUC      -0.095000
     24 C24         31.8120    10.7360    86.4290 ca         1 KUC      -0.077000
     25 C25         30.5030    10.4660    86.1190 cc         1 KUC      -0.106400
     26 C26         33.9520    11.0200    85.2030 ca         1 KUC      -0.068000
     27 C27         34.5560    11.2750    86.3910 ca         1 KUC      -0.159000
     28 C28         33.7970    11.2620    87.5990 ca         1 KUC       0.129900
     29 C29         32.4720    11.0010    87.6630 ca         1 KUC      -0.139000
     30 F30         25.8940    16.1650    78.7990 f          1 KUC      -0.142900
     31 F31         34.4800    11.5330    88.7250 f          1 KUC      -0.146900
     32 H1          30.5780     7.4750    80.4150 ha         1 KUC       0.165000
     33 H2          29.7540     9.1400    78.8160 ha         1 KUC       0.160000
     34 H3          28.3890    11.5750    82.0720 ha         1 KUC       0.163000
     35 H4          30.3360     7.7790    83.8740 ho         1 KUC       0.449000
     36 H5          28.0370    14.0460    78.6050 h4         1 KUC       0.193000
     37 H6          26.2750    10.8400    80.7360 h4         1 KUC       0.179000
     38 H7          23.5160    16.2080    79.8630 ha         1 KUC       0.146000
     39 H8          22.4740    14.3210    81.0820 ha         1 KUC       0.131000
     40 H9          23.6570    12.1910    81.4050 ha         1 KUC       0.136000
     41 H10         31.8260    10.4310    83.1130 h4         1 KUC       0.181000
     42 H11         29.6310    10.3690    86.7430 h4         1 KUC       0.191000
     43 H12         34.5190    11.0300    84.2810 ha         1 KUC       0.138000
     44 H13         35.6150    11.4930    86.4430 ha         1 KUC       0.148000
     45 H14         31.9380    11.0020    88.6040 ha         1 KUC       0.153000
@<TRIPOS>BOND
     1     1     2 ar  
     2     1     6 ar  
     3     1     8 1   
     4     2     3 ar  
     5     2     7 1   
     6     3     4 ar  
     7     3    32 1   
     8     4     5 ar  
     9     4    33 1   
    10     5     6 ar  
    11     5    11 1   
    12     6    34 1   
    13     7    35 1   
    14     8     9 2   
    15     8    10 1   
    16    10    22 1   
    17    10    25 1   
    18    11    12 2   
    19    11    13 1   
    20    13    14 1   
    21    13    17 1   
    22    14    15 2   
    23    14    36 1   
    24    15    16 ar  
    25    15    18 ar  
    26    16    17 2   
    27    16    21 ar  
    28    17    37 1   
    29    18    19 ar  
    30    18    30 1   
    31    19    20 ar  
    32    19    38 1   
    33    20    21 ar  
    34    20    39 1   
    35    21    40 1   
    36    22    23 2   
    37    22    41 1   
    38    23    24 ar  
    39    23    26 ar  
    40    24    25 2   
    41    24    29 ar  
    42    25    42 1   
    43    26    27 ar  
    44    26    43 1   
    45    27    28 ar  
    46    27    44 1   
    47    28    29 ar  
    48    28    31 1   
    49    29    45 1   
@<TRIPOS>SUBSTRUCTURE
     1 KUC         1 TEMP              0 ****  ****    0 ROOT
