@<TRIPOS>MOLECULE
KUD
   32    33     1     0     0
SMALL
No Charge or Current Charge


@<TRIPOS>ATOM
      1 C14          2.3620     1.6280     0.5970 c5         1 KUD      -0.070400
      2 O16         -0.6570     0.4120    -2.1750 o          1 KUD      -0.511100
      3 C13          1.7860     2.8780    -0.1130 c5         1 KUD      -0.081400
      4 C12          0.2500     2.6160    -0.1020 c5         1 KUD      -0.072400
      5 C10          0.1060     1.0660     0.0960 c5         1 KUD      -0.170700
      6 C01         -4.0290     0.1880     1.2050 ca         1 KUD      -0.132500
      7 C02         -4.5740    -1.0140     0.7290 ca         1 KUD      -0.101000
      8 C03         -3.9200    -1.7220    -0.2920 ca         1 KUD      -0.132500
      9 C04         -2.7190    -1.2310    -0.8340 ca         1 KUD      -0.067000
     10 C05         -2.1520    -0.0320    -0.3510 ca         1 KUD      -0.158600
     11 C06         -2.8270     0.6820     0.6670 ca         1 KUD      -0.067000
     12 C07         -0.8670     0.4720    -0.9680 c          1 KUD       0.586700
     13 C08          1.7580    -0.9220     0.4520 c3         1 KUD      -0.204400
     14 C09          3.1920    -1.4170     0.1880 c          1 KUD       0.718000
     15 C11          1.5500     0.5110    -0.1070 c5         1 KUD      -0.020700
     16 O15          3.4260    -1.9550    -0.8840 o          1 KUD      -0.741000
     17 O17          4.0410    -1.2240     1.0450 o          1 KUD      -0.741000
     18 H1           3.4420     1.5310     0.4400 hc         1 KUD       0.055200
     19 H2           2.1850     1.6520     1.6790 hc         1 KUD       0.055200
     20 H3           2.0530     3.8090     0.4000 hc         1 KUD       0.024200
     21 H4           2.1640     2.9560    -1.1400 hc         1 KUD       0.024200
     22 H5          -0.2380     3.1560     0.7170 hc         1 KUD       0.032200
     23 H6          -0.2130     2.9720    -1.0300 hc         1 KUD       0.032200
     24 H7          -0.2530     0.8530     1.1090 hc         1 KUD       0.057700
     25 H10         -4.3450    -2.6500    -0.6670 ha         1 KUD       0.106000
     26 H11         -2.2240    -1.7890    -1.6260 ha         1 KUD       0.127000
     27 H12         -2.4360     1.6280     1.0370 ha         1 KUD       0.127000
     28 H13          1.0460    -1.5600    -0.0860 hc         1 KUD       0.021200
     29 H14          1.5650    -0.8760     1.5310 hc         1 KUD       0.021200
     30 H15          1.8140     0.4750    -1.1730 hc         1 KUD       0.074700
     31 H8          -4.5400     0.7430     1.9880 ha         1 KUD       0.106000
     32 H9          -5.5040    -1.3940     1.1460 ha         1 KUD       0.102000
@<TRIPOS>BOND
     1     1     3 1   
     2     1    15 1   
     3     1    18 1   
     4     1    19 1   
     5     2    12 2   
     6     3     4 1   
     7     3    20 1   
     8     3    21 1   
     9     4     5 1   
    10     4    22 1   
    11     4    23 1   
    12     5    12 1   
    13     5    15 1   
    14     5    24 1   
    15     6     7 ar  
    16     6    11 ar  
    17     6    31 1   
    18     7     8 ar  
    19     7    32 1   
    20     8     9 ar  
    21     8    25 1   
    22     9    10 ar  
    23     9    26 1   
    24    10    11 ar  
    25    10    12 1   
    26    11    27 1   
    27    13    14 1   
    28    13    15 1   
    29    13    28 1   
    30    13    29 1   
    31    14    16 1   
    32    14    17 1   
    33    15    30 1   
@<TRIPOS>SUBSTRUCTURE
     1 KUD         1 TEMP              0 ****  ****    0 ROOT
