@<TRIPOS>MOLECULE
KUD
   32    33     1     0     0
SMALL
bcc


@<TRIPOS>ATOM
      1 C14          2.3530     1.7680     0.1720 c5         1 KUD      -0.070400
      2 O16         -0.3940    -0.9930    -1.5100 o          1 KUD      -0.511100
      3 C13          1.2670     2.8530     0.0170 c5         1 KUD      -0.081400
      4 C12          0.0010     2.1190    -0.4420 c5         1 KUD      -0.072400
      5 C10          0.2140     0.6820     0.0650 c5         1 KUD      -0.170700
      6 C01         -3.9400     0.3690     1.3630 ca         1 KUD      -0.150500
      7 C02         -4.8460    -0.3970     0.6440 ca         1 KUD      -0.119000
      8 C03         -4.4170    -1.1200    -0.4630 ca         1 KUD      -0.150500
      9 C04         -3.0880    -1.0740    -0.8480 ca         1 KUD      -0.085000
     10 C05         -2.1660    -0.3030    -0.1350 ca         1 KUD      -0.158600
     11 C06         -2.6090     0.4170     0.9750 ca         1 KUD      -0.085000
     12 C07         -0.7440    -0.2780    -0.5930 c          1 KUD       0.586700
     13 C08          2.2600    -0.7670     0.5370 c3         1 KUD      -0.204400
     14 C09          3.7540    -1.0560     0.3080 c          1 KUD       0.928600
     15 C11          1.6980     0.4300    -0.2100 c5         1 KUD      -0.020700
     16 O15          4.2790    -0.6080    -0.7300 o          1 KUD      -0.846300
     17 O17          4.3210    -1.7520     1.1770 o          1 KUD      -0.846300
     18 H1           3.2310     1.9620    -0.4430 hc         1 KUD       0.055200
     19 H2           2.7040     1.7270     1.2070 hc         1 KUD       0.055200
     20 H3           1.0840     3.3490     0.9720 hc         1 KUD       0.024200
     21 H4           1.5510     3.6340    -0.6900 hc         1 KUD       0.024200
     22 H5          -0.9160     2.5790    -0.0710 hc         1 KUD       0.032200
     23 H6          -0.0630     2.1110    -1.5340 hc         1 KUD       0.032200
     24 H7           0.0550     0.6720     1.1490 hc         1 KUD       0.057700
     25 H10         -5.1190    -1.7220    -1.0250 ha         1 KUD       0.124000
     26 H11         -2.7610    -1.6360    -1.7120 ha         1 KUD       0.145000
     27 H12         -1.9230     1.0210     1.5520 ha         1 KUD       0.145000
     28 H13          1.7110    -1.6720     0.2480 hc         1 KUD       0.021200
     29 H14          2.0770    -0.6460     1.6110 hc         1 KUD       0.021200
     30 H15          1.8240     0.2730    -1.2850 hc         1 KUD       0.074700
     31 H8          -4.2680     0.9320     2.2260 ha         1 KUD       0.124000
     32 H9          -5.8860    -0.4330     0.9450 ha         1 KUD       0.120000
@<TRIPOS>BOND
     1     1     3 1   
     2     1    15 1   
     3     1    18 1   
     4     1    19 1   
     5     2    12 2   
     6     3     4 1   
     7     3    20 1   
     8     3    21 1   
     9     4     5 1   
    10     4    22 1   
    11     4    23 1   
    12     5    12 1   
    13     5    15 1   
    14     5    24 1   
    15     6     7 ar  
    16     6    11 ar  
    17     6    31 1   
    18     7     8 ar  
    19     7    32 1   
    20     8     9 ar  
    21     8    25 1   
    22     9    10 ar  
    23     9    26 1   
    24    10    11 ar  
    25    10    12 1   
    26    11    27 1   
    27    13    14 1   
    28    13    15 1   
    29    13    28 1   
    30    13    29 1   
    31    14    16 1   
    32    14    17 1   
    33    15    30 1   
@<TRIPOS>SUBSTRUCTURE
     1 KUD         1 TEMP              0 ****  ****    0 ROOT
