@<TRIPOS>MOLECULE
KUE
   62    65     1     0     0
SMALL
abcg2


@<TRIPOS>ATOM
      1 O3           1.1570     0.7400    -2.1350 o          1 KUE      -0.561100
      2 C4          -0.4320     5.2620     1.7020 c3         1 KUE       0.151900
      3 C5          -0.4580     2.1600    -0.2040 ca         1 KUE      -0.070000
      4 O4          -5.1500     0.8530    -1.3550 o          1 KUE      -0.536500
      5 C6           1.6460     1.3280    -1.1910 c          1 KUE       0.620100
      6 N1           2.7100    -0.6210     0.2930 nc         1 KUE      -0.417300
      7 C7           3.1420     1.3670    -0.9500 c3         1 KUE      -0.186700
      8 C8           3.6050     0.1920    -0.1350 cd         1 KUE       0.373900
      9 N2           3.0870    -1.6770     1.0190 ns         1 KUE      -0.235900
     10 C9           4.3510    -2.0340     1.3840 c          1 KUE       0.554600
     11 C10          5.3830    -1.1140     0.9040 ca         1 KUE      -0.144600
     12 C11          6.7250    -1.3510     1.2040 ca         1 KUE      -0.049000
     13 C12          7.6920    -0.4780     0.7500 ca         1 KUE      -0.112000
     14 N3          -3.9450    -0.9050    -0.0580 n3         1 KUE      -0.748500
     15 C13          7.3280     0.6390    -0.0050 ca         1 KUE      -0.081000
     16 C14          6.0040     0.8800    -0.3080 ca         1 KUE      -0.104000
     17 C15          5.0120     0.0020     0.1440 ca         1 KUE      -0.116900
     18 O           -3.2240    -0.3810    -2.3940 o          1 KUE      -0.536500
     19 C23         -2.7860    -1.7700     0.1620 c3         1 KUE       0.217300
     20 C22         -3.1710    -3.1000     0.7880 c3         1 KUE      -0.076900
     21 C21         -4.1280    -3.9650    -0.0240 c3         1 KUE      -0.062900
     22 C20         -5.5280    -3.4020    -0.2920 c3         1 KUE      -0.061400
     23 C19         -6.2230    -2.7700     0.9230 c3         1 KUE      -0.062900
     24 C18         -6.1790    -1.2440     0.9870 c3         1 KUE      -0.076900
     25 C17         -4.8000    -0.6110     1.0970 c3         1 KUE       0.217300
     26 C           -2.7210     1.4710    -0.6220 ca         1 KUE      -0.317500
     27 C16         -1.3510     1.2510    -0.7440 ca         1 KUE      -0.008000
     28 C3          -0.9540     3.2990     0.4680 ca         1 KUE       0.146100
     29 O1          -0.0240     4.1230     0.9630 os         1 KUE      -0.356100
     30 C2          -2.3230     3.5010     0.5770 ca         1 KUE      -0.203000
     31 C1          -3.2130     2.5890     0.0270 ca         1 KUE       0.004000
     32 N            0.9290     2.0120    -0.2650 ns         1 KUE      -0.141000
     33 O2           4.5630    -3.0360     2.0510 o          1 KUE      -0.538000
     34 H1           0.4790     5.7690     2.0080 h1         1 KUE       0.047033
     35 H2          -1.0310     5.9430     1.0950 h1         1 KUE       0.047033
     36 H3          -0.9990     4.9800     2.5920 h1         1 KUE       0.047033
     37 H4           3.6410     1.3600    -1.9210 hc         1 KUE       0.079200
     38 H5           3.4390     2.2950    -0.4540 hc         1 KUE       0.079200
     39 H6           2.3230    -2.2710     1.3110 hn         1 KUE       0.355500
     40 H7           7.0000    -2.2190     1.7880 ha         1 KUE       0.143000
     41 H8           8.7330    -0.6570     0.9800 ha         1 KUE       0.124000
     42 H9           8.0900     1.3220    -0.3570 ha         1 KUE       0.120000
     43 H10          5.7410     1.7510    -0.8930 ha         1 KUE       0.120000
     44 H11         -2.3110    -1.9650    -0.7980 h1         1 KUE       0.046950
     45 H12         -2.0480    -1.2680     0.8010 h1         1 KUE       0.046950
     46 H13         -2.2370    -3.6510     0.9290 hc         1 KUE       0.045950
     47 H14         -3.5630    -2.9470     1.7960 hc         1 KUE       0.045950
     48 H15         -3.6590    -4.2190    -0.9790 hc         1 KUE       0.035200
     49 H16         -4.2370    -4.9110     0.5150 hc         1 KUE       0.035200
     50 H17         -5.4950    -2.6820    -1.1110 hc         1 KUE       0.042700
     51 H18         -6.1380    -4.2330    -0.6570 hc         1 KUE       0.042700
     52 H19         -7.2790    -3.0530     0.9130 hc         1 KUE       0.035200
     53 H20         -5.8220    -3.1910     1.8520 hc         1 KUE       0.035200
     54 H21         -6.6830    -0.8320     0.1090 hc         1 KUE       0.045950
     55 H22         -6.7550    -0.9110     1.8550 hc         1 KUE       0.045950
     56 H23         -4.2870    -0.9670     1.9910 h1         1 KUE       0.046950
     57 H24         -4.9050     0.4670     1.2390 h1         1 KUE       0.046950
     58 H25         -0.9820     0.3770    -1.2560 ha         1 KUE       0.163000
     59 H26         -2.7180     4.3750     1.0740 ha         1 KUE       0.122000
     60 H27         -4.2750     2.7740     0.1060 ha         1 KUE       0.138000
     61 H28          1.4540     2.5080     0.4390 hn         1 KUE       0.164000
     62 S           -3.8360     0.2390    -1.2290 sy         1 KUE       1.172600
@<TRIPOS>BOND
     1     1     5 2   
     2     2    29 1   
     3     2    34 1   
     4     2    35 1   
     5     2    36 1   
     6     3    27 ar  
     7     3    28 ar  
     8     3    32 1   
     9     4    62 2   
    10     5     7 1   
    11     5    32 1   
    12     6     8 2   
    13     6     9 1   
    14     7     8 1   
    15     7    37 1   
    16     7    38 1   
    17     8    17 1   
    18     9    10 1   
    19     9    39 1   
    20    10    11 1   
    21    10    33 2   
    22    11    12 ar  
    23    11    17 ar  
    24    12    13 ar  
    25    12    40 1   
    26    13    15 ar  
    27    13    41 1   
    28    14    19 1   
    29    14    25 1   
    30    14    62 1   
    31    15    16 ar  
    32    15    42 1   
    33    16    17 ar  
    34    16    43 1   
    35    18    62 2   
    36    19    20 1   
    37    19    44 1   
    38    19    45 1   
    39    20    21 1   
    40    20    46 1   
    41    20    47 1   
    42    21    22 1   
    43    21    48 1   
    44    21    49 1   
    45    22    23 1   
    46    22    50 1   
    47    22    51 1   
    48    23    24 1   
    49    23    52 1   
    50    23    53 1   
    51    24    25 1   
    52    24    54 1   
    53    24    55 1   
    54    25    56 1   
    55    25    57 1   
    56    26    27 ar  
    57    26    31 ar  
    58    26    62 1   
    59    27    58 1   
    60    28    29 1   
    61    28    30 ar  
    62    30    31 ar  
    63    30    59 1   
    64    31    60 1   
    65    32    61 1   
@<TRIPOS>SUBSTRUCTURE
     1 KUE         1 TEMP              0 ****  ****    0 ROOT
