@<TRIPOS>MOLECULE
KUE
   62    65     1     0     0
SMALL
No Charge or Current Charge


@<TRIPOS>ATOM
      1 O3           1.2140     0.0930    -1.6180 o          1 KUE      -0.561100
      2 C4          -0.4430     5.0150     2.2000 c3         1 KUE       0.151900
      3 C5          -0.5400     2.1300    -0.1830 ca         1 KUE      -0.070000
      4 O4          -5.3400     1.1430    -1.6350 o          1 KUE      -0.536500
      5 C6           1.6580     1.0330    -0.9700 c          1 KUE       0.620100
      6 N1           3.0270    -0.1040     1.1660 nc         1 KUE      -0.417300
      7 C7           3.1610     1.2590    -0.8310 c3         1 KUE      -0.186700
      8 C8           3.8100     0.3520     0.1830 cd         1 KUE       0.373900
      9 N2           3.5550    -0.9400     2.1220 ns         1 KUE      -0.235900
     10 C9           4.8480    -1.4030     2.2410 c          1 KUE       0.554600
     11 C10          5.7740    -0.8840     1.1740 ca         1 KUE      -0.144600
     12 C11          7.1390    -1.2410     1.1730 ca         1 KUE      -0.049000
     13 C12          8.0000    -0.7320     0.1890 ca         1 KUE      -0.112000
     14 N3          -4.2430    -0.8400    -0.4760 n3         1 KUE      -0.748500
     15 C13          7.5050     0.1390    -0.7920 ca         1 KUE      -0.081000
     16 C14          6.1470     0.4980    -0.7990 ca         1 KUE      -0.104000
     17 C15          5.2580    -0.0160     0.1750 ca         1 KUE      -0.116900
     18 O           -3.4190    -0.0920    -2.7600 o          1 KUE      -0.536500
     19 C23         -3.0290    -1.6560    -0.2520 c3         1 KUE       0.217300
     20 C22         -3.2410    -2.9800     0.5250 c3         1 KUE      -0.076900
     21 C21         -4.2200    -4.0020    -0.1070 c3         1 KUE      -0.062900
     22 C20         -5.6880    -3.5440    -0.3210 c3         1 KUE      -0.061400
     23 C19         -6.3520    -2.8200     0.8810 c3         1 KUE      -0.062900
     24 C18         -6.3890    -1.2690     0.7860 c3         1 KUE      -0.076900
     25 C17         -5.0260    -0.5380     0.7460 c3         1 KUE       0.217300
     26 C           -2.8590     1.5210    -0.6900 ca         1 KUE      -0.317500
     27 C16         -1.4740     1.3170    -0.8640 ca         1 KUE      -0.008000
     28 C3          -1.0080     3.1590     0.6630 ca         1 KUE       0.146100
     29 O1          -0.0720     3.9440     1.3140 os         1 KUE      -0.356100
     30 C2          -2.3940     3.3640     0.8270 ca         1 KUE      -0.203000
     31 C1          -3.3160     2.5490     0.1540 ca         1 KUE       0.004000
     32 N            0.8720     1.9670    -0.3070 ns         1 KUE      -0.141000
     33 O2           5.1940    -2.1600     3.1380 o          1 KUE      -0.538000
     34 H1           0.4530     5.5010     2.6050 h1         1 KUE       0.047033
     35 H2          -1.0310     5.7750     1.6700 h1         1 KUE       0.047033
     36 H3          -1.0350     4.6370     3.0440 h1         1 KUE       0.047033
     37 H4           3.5990     1.0720    -1.8160 hc         1 KUE       0.079200
     38 H5           3.3530     2.2940    -0.5270 hc         1 KUE       0.079200
     39 H6           2.9210    -1.2700     2.8450 hn         1 KUE       0.355500
     40 H7           7.5340    -1.9080     1.9370 ha         1 KUE       0.143000
     41 H8           9.0530    -1.0080     0.1920 ha         1 KUE       0.124000
     42 H9           8.1760     0.5400    -1.5490 ha         1 KUE       0.120000
     43 H10          5.8010     1.1830    -1.5680 ha         1 KUE       0.120000
     44 H11         -2.5750    -1.9230    -1.2160 h1         1 KUE       0.046950
     45 H12         -2.2830    -1.0660     0.2970 h1         1 KUE       0.046950
     46 H13         -2.2620    -3.4670     0.6110 hc         1 KUE       0.045950
     47 H14         -3.5430    -2.7690     1.5560 hc         1 KUE       0.045950
     48 H15         -3.8150    -4.3310    -1.0720 hc         1 KUE       0.035200
     49 H16         -4.2330    -4.8920     0.5350 hc         1 KUE       0.035200
     50 H17         -5.7560    -2.9170    -1.2180 hc         1 KUE       0.042700
     51 H18         -6.2790    -4.4400    -0.5510 hc         1 KUE       0.042700
     52 H19         -7.3920    -3.1640     0.9480 hc         1 KUE       0.035200
     53 H20         -5.8780    -3.1280     1.8210 hc         1 KUE       0.035200
     54 H21         -6.9670    -0.9800    -0.1000 hc         1 KUE       0.045950
     55 H22         -6.9480    -0.8890     1.6500 hc         1 KUE       0.045950
     56 H23         -4.4620    -0.7870     1.6530 h1         1 KUE       0.046950
     57 H24         -5.2310     0.5380     0.8260 h1         1 KUE       0.046950
     58 H25         -1.1430     0.5250    -1.5300 ha         1 KUE       0.163000
     59 H26         -2.7770     4.1500     1.4710 ha         1 KUE       0.122000
     60 H27         -4.3830     2.7240     0.2910 ha         1 KUE       0.138000
     61 H28          1.4000     2.6680     0.1970 hn         1 KUE       0.164000
     62 S           -4.0390     0.4680    -1.5540 sy         1 KUE       1.172600
@<TRIPOS>BOND
     1     1     5 2   
     2     2    29 1   
     3     2    34 1   
     4     2    35 1   
     5     2    36 1   
     6     3    27 ar  
     7     3    28 ar  
     8     3    32 1   
     9     4    62 2   
    10     5     7 1   
    11     5    32 1   
    12     6     8 2   
    13     6     9 1   
    14     7     8 1   
    15     7    37 1   
    16     7    38 1   
    17     8    17 1   
    18     9    10 1   
    19     9    39 1   
    20    10    11 1   
    21    10    33 2   
    22    11    12 ar  
    23    11    17 ar  
    24    12    13 ar  
    25    12    40 1   
    26    13    15 ar  
    27    13    41 1   
    28    14    19 1   
    29    14    25 1   
    30    14    62 1   
    31    15    16 ar  
    32    15    42 1   
    33    16    17 ar  
    34    16    43 1   
    35    18    62 2   
    36    19    20 1   
    37    19    44 1   
    38    19    45 1   
    39    20    21 1   
    40    20    46 1   
    41    20    47 1   
    42    21    22 1   
    43    21    48 1   
    44    21    49 1   
    45    22    23 1   
    46    22    50 1   
    47    22    51 1   
    48    23    24 1   
    49    23    52 1   
    50    23    53 1   
    51    24    25 1   
    52    24    54 1   
    53    24    55 1   
    54    25    56 1   
    55    25    57 1   
    56    26    27 ar  
    57    26    31 ar  
    58    26    62 1   
    59    27    58 1   
    60    28    29 1   
    61    28    30 ar  
    62    30    31 ar  
    63    30    59 1   
    64    31    60 1   
    65    32    61 1   
@<TRIPOS>SUBSTRUCTURE
     1 KUE         1 TEMP              0 ****  ****    0 ROOT
