@<TRIPOS>MOLECULE
KUF
   21    22     1     0     0
SMALL
bcc


@<TRIPOS>ATOM
      1 C4          -0.9770    -1.8270     0.0590 ca         1 KUF      -0.139000
      2 C3          -2.1830    -1.1680     0.0430 ca         1 KUF      -0.095000
      3 C12         -1.0700     0.9450    -0.0160 ca         1 KUF      -0.065000
      4 C5           0.2310    -1.1100     0.0380 ca         1 KUF       0.008200
      5 C11          0.1700     0.2940     0.0000 ca         1 KUF      -0.163600
      6 C2          -2.2530     0.2350     0.0040 ca         1 KUF      -0.097300
      7 C6           1.5080    -1.7600     0.0540 cc         1 KUF      -0.207200
      8 C7           2.6220    -1.0070     0.0310 cd         1 KUF       0.005600
      9 C9           1.3980     1.0910    -0.0230 c          1 KUF       0.712100
     10 C1          -3.5850     0.9260    -0.0110 c3         1 KUF      -0.044800
     11 N8           2.5530     0.3580    -0.0050 ns         1 KUF      -0.452100
     12 O10          1.4270     2.3160    -0.0560 o          1 KUF      -0.633500
     13 H4          -0.9490    -2.9090     0.0870 ha         1 KUF       0.134000
     14 H3          -3.1010    -1.7450     0.0590 ha         1 KUF       0.130000
     15 H12         -1.0960     2.0270    -0.0460 ha         1 KUF       0.152000
     16 H6           1.5790    -2.8370     0.0820 ha         1 KUF       0.148000
     17 H11C        -4.1490     0.7150     0.8990 hc         1 KUF       0.043700
     18 H12C        -3.4730     2.0060    -0.0910 hc         1 KUF       0.043700
     19 H13C        -4.1950     0.5870    -0.8500 hc         1 KUF       0.043700
     20 H7           3.6190    -1.4220     0.0410 h4         1 KUF       0.148000
     21 H8           3.4180     0.8800    -0.0210 hn         1 KUF       0.326500
@<TRIPOS>BOND
     1     1     2 ar  
     2     1     4 ar  
     3     1    13 1   
     4     2     6 ar  
     5     2    14 1   
     6     3     5 ar  
     7     3     6 ar  
     8     3    15 1   
     9     4     5 ar  
    10     4     7 1   
    11     5     9 1   
    12     6    10 1   
    13     7     8 2   
    14     7    16 1   
    15     8    11 1   
    16     8    20 1   
    17     9    11 1   
    18     9    12 2   
    19    10    17 1   
    20    10    18 1   
    21    10    19 1   
    22    11    21 1   
@<TRIPOS>SUBSTRUCTURE
     1 KUF         1 TEMP              0 ****  ****    0 ROOT
