@<TRIPOS>MOLECULE
KUF
   21    22     1     0     0
SMALL
No Charge or Current Charge


@<TRIPOS>ATOM
      1 C4          -0.9690    -1.8340     0.0020 ca         1 KUF      -0.121000
      2 C3          -2.2150    -1.1840    -0.0050 ca         1 KUF      -0.077000
      3 C12         -1.0860     0.9690     0.0110 ca         1 KUF      -0.047000
      4 C5           0.2240    -1.0900     0.0130 ca         1 KUF       0.008200
      5 C11          0.1660     0.3180     0.0180 ca         1 KUF      -0.163600
      6 C2          -2.2790     0.2220    -0.0030 ca         1 KUF      -0.097300
      7 C6           1.5120    -1.7830     0.0210 cc         1 KUF      -0.257200
      8 C7           2.6700    -1.0300     0.0340 cd         1 KUF      -0.044400
      9 C9           1.4460     1.1030     0.0320 c          1 KUF       0.569600
     10 C1          -3.6260     0.9280    -0.0080 c3         1 KUF      -0.044800
     11 N8           2.5970     0.3550     0.0390 ns         1 KUF      -0.385100
     12 O10          1.4850     2.3250     0.0380 o          1 KUF      -0.558000
     13 H4          -0.9330    -2.9210    -0.0000 ha         1 KUF       0.116000
     14 H3          -3.1290    -1.7730    -0.0120 ha         1 KUF       0.112000
     15 H12         -1.1340     2.0560     0.0170 ha         1 KUF       0.134000
     16 H6           1.5740    -2.8690     0.0170 ha         1 KUF       0.198000
     17 H11C        -3.9580     1.1430     1.0150 hc         1 KUF       0.043700
     18 H12C        -3.5770     1.8800    -0.5510 hc         1 KUF       0.043700
     19 H13C        -4.3990     0.3160    -0.4880 hc         1 KUF       0.043700
     20 H7           3.6780    -1.4410     0.0410 h4         1 KUF       0.198000
     21 H8           3.4480     0.9060     0.0480 hn         1 KUF       0.326500
@<TRIPOS>BOND
     1     1     2 ar  
     2     1     4 ar  
     3     1    13 1   
     4     2     6 ar  
     5     2    14 1   
     6     3     5 ar  
     7     3     6 ar  
     8     3    15 1   
     9     4     5 ar  
    10     4     7 1   
    11     5     9 1   
    12     6    10 1   
    13     7     8 2   
    14     7    16 1   
    15     8    11 1   
    16     8    20 1   
    17     9    11 1   
    18     9    12 2   
    19    10    17 1   
    20    10    18 1   
    21    10    19 1   
    22    11    21 1   
@<TRIPOS>SUBSTRUCTURE
     1 KUF         1 TEMP              0 ****  ****    0 ROOT
