@<TRIPOS>MOLECULE
KUG
   32    33     1     0     0
SMALL
abcg2


@<TRIPOS>ATOM
      1 C14         -2.3980    -1.6550    -0.5260 c5         1 KUG      -0.070400
      2 C12         -0.0700    -2.2110    -0.0050 c5         1 KUG      -0.068400
      3 C13         -1.4880    -2.8140    -0.1160 c5         1 KUG      -0.081400
      4 C01          3.9010    -0.2100    -1.4400 ca         1 KUG      -0.133000
      5 C02          4.8220     0.3860    -0.5900 ca         1 KUG      -0.101000
      6 C03          4.4080     0.8850     0.6390 ca         1 KUG      -0.133000
      7 C04          3.0790     0.7870     1.0150 ca         1 KUG      -0.067000
      8 C05          2.1420     0.1860     0.1700 ca         1 KUG      -0.158600
      9 C06          2.5690    -0.3090    -1.0620 ca         1 KUG      -0.067000
     10 C07          0.7210     0.0960     0.6220 c          1 KUG       0.585700
     11 C08         -2.2520     0.9010    -0.4420 c3         1 KUG      -0.202400
     12 C09         -3.7310     1.1940    -0.1290 c          1 KUG       0.717000
     13 C10         -0.2590    -0.6840    -0.2160 c5         1 KUG      -0.169700
     14 C11         -1.7360    -0.4240     0.0900 c5         1 KUG      -0.024700
     15 O15         -4.3550     1.8870    -0.9600 o          1 KUG      -0.740000
     16 O16          0.3880     0.6090     1.6710 o          1 KUG      -0.510100
     17 O17         -4.1840     0.7520     0.9470 o          1 KUG      -0.740000
     18 H1          -2.4160    -1.5510    -1.6160 hc         1 KUG       0.051700
     19 H2          -3.4290    -1.7850    -0.1960 hc         1 KUG       0.051700
     20 H3           0.3600    -2.4200     0.9760 hc         1 KUG       0.027700
     21 H4           0.6160    -2.6300    -0.7410 hc         1 KUG       0.027700
     22 H5          -1.8010    -3.2100     0.8520 hc         1 KUG       0.028700
     23 H6          -1.5250    -3.6430    -0.8240 hc         1 KUG       0.028700
     24 H9           5.1230     1.3500     1.3050 ha         1 KUG       0.106000
     25 H10          2.7650     1.1760     1.9740 ha         1 KUG       0.126500
     26 H11          1.8710    -0.7730    -1.7450 ha         1 KUG       0.126500
     27 H12         -2.0850     0.9560    -1.5230 hc         1 KUG       0.020700
     28 H13         -1.6660     1.7210    -0.0080 hc         1 KUG       0.020700
     29 H14         -0.0930    -0.4580    -1.2750 hc         1 KUG       0.056700
     30 H15         -1.8870    -0.4580     1.1730 hc         1 KUG       0.081700
     31 H7           4.2170    -0.5990    -2.3980 ha         1 KUG       0.106000
     32 H8           5.8610     0.4620    -0.8840 ha         1 KUG       0.101000
@<TRIPOS>BOND
     1     1     3 1   
     2     1    14 1   
     3     1    18 1   
     4     1    19 1   
     5     2     3 1   
     6     2    13 1   
     7     2    20 1   
     8     2    21 1   
     9     3    22 1   
    10     3    23 1   
    11     4     5 ar  
    12     4     9 ar  
    13     4    31 1   
    14     5     6 ar  
    15     5    32 1   
    16     6     7 ar  
    17     6    24 1   
    18     7     8 ar  
    19     7    25 1   
    20     8     9 ar  
    21     8    10 1   
    22     9    26 1   
    23    10    13 1   
    24    10    16 2   
    25    11    12 1   
    26    11    14 1   
    27    11    27 1   
    28    11    28 1   
    29    12    15 1   
    30    12    17 1   
    31    13    14 1   
    32    13    29 1   
    33    14    30 1   
@<TRIPOS>SUBSTRUCTURE
     1 KUG         1 TEMP              0 ****  ****    0 ROOT
