@<TRIPOS>MOLECULE
KUG
   32    33     1     0     0
SMALL
No Charge or Current Charge


@<TRIPOS>ATOM
      1 C14         -2.4520    -1.4570    -0.7770 c5         1 KUG      -0.070400
      2 C12         -0.3670    -2.6030    -0.2610 c5         1 KUG      -0.068400
      3 C13         -1.9110    -2.8120    -0.2590 c5         1 KUG      -0.081400
      4 C01          3.9810    -0.1690    -1.2840 ca         1 KUG      -0.133000
      5 C02          4.5770     0.9340    -0.6530 ca         1 KUG      -0.101000
      6 C03          3.9630     1.5130     0.4690 ca         1 KUG      -0.133000
      7 C04          2.7500     0.9950     0.9550 ca         1 KUG      -0.067000
      8 C05          2.1310    -0.1030     0.3180 ca         1 KUG      -0.158600
      9 C06          2.7670    -0.6900    -0.8020 ca         1 KUG      -0.067000
     10 C07          0.8350    -0.6430     0.8800 c          1 KUG       0.585700
     11 C08         -1.7570     1.0260    -0.2870 c3         1 KUG      -0.202400
     12 C09         -3.1690     1.5270     0.0700 c          1 KUG       0.717000
     13 C10         -0.1710    -1.0460    -0.2420 c5         1 KUG      -0.169700
     14 C11         -1.5930    -0.4780     0.0630 c5         1 KUG      -0.024700
     15 O15         -4.0350     1.4860    -0.7910 o          1 KUG      -0.740000
     16 O16          0.6410    -0.7440     2.0860 o          1 KUG      -0.510100
     17 O17         -3.3700     1.9140     1.2110 o          1 KUG      -0.740000
     18 H1          -2.2890    -1.3350    -1.8550 hc         1 KUG       0.051700
     19 H2          -3.5260    -1.3470    -0.5900 hc         1 KUG       0.051700
     20 H3           0.0960    -3.1010     0.5990 hc         1 KUG       0.027700
     21 H4           0.0910    -3.0370    -1.1570 hc         1 KUG       0.027700
     22 H5          -2.2780    -3.0220     0.7530 hc         1 KUG       0.028700
     23 H6          -2.2170    -3.6530    -0.8930 hc         1 KUG       0.028700
     24 H9           4.4270     2.3630     0.9630 ha         1 KUG       0.106000
     25 H10          2.2850     1.4520     1.8270 ha         1 KUG       0.126500
     26 H11          2.3360    -1.5590    -1.2950 ha         1 KUG       0.126500
     27 H12         -1.5800     1.1260    -1.3650 hc         1 KUG       0.020700
     28 H13         -1.0150     1.5570     0.3230 hc         1 KUG       0.020700
     29 H14          0.1830    -0.7040    -1.2210 hc         1 KUG       0.056700
     30 H15         -1.8420    -0.5830     1.1280 hc         1 KUG       0.081700
     31 H7           4.4610    -0.6260    -2.1470 ha         1 KUG       0.106000
     32 H8           5.5160     1.3340    -1.0280 ha         1 KUG       0.101000
@<TRIPOS>BOND
     1     1     3 1   
     2     1    14 1   
     3     1    18 1   
     4     1    19 1   
     5     2     3 1   
     6     2    13 1   
     7     2    20 1   
     8     2    21 1   
     9     3    22 1   
    10     3    23 1   
    11     4     5 ar  
    12     4     9 ar  
    13     4    31 1   
    14     5     6 ar  
    15     5    32 1   
    16     6     7 ar  
    17     6    24 1   
    18     7     8 ar  
    19     7    25 1   
    20     8     9 ar  
    21     8    10 1   
    22     9    26 1   
    23    10    13 1   
    24    10    16 2   
    25    11    12 1   
    26    11    14 1   
    27    11    27 1   
    28    11    28 1   
    29    12    15 1   
    30    12    17 1   
    31    13    14 1   
    32    13    29 1   
    33    14    30 1   
@<TRIPOS>SUBSTRUCTURE
     1 KUG         1 TEMP              0 ****  ****    0 ROOT
