@<TRIPOS>MOLECULE
KUH
   60    62     1     0     0
SMALL
abcg2


@<TRIPOS>ATOM
      1 C11          3.7280     5.5530    23.0210 ca         1 KUH      -0.065000
      2 C13          2.0910     7.2580    25.7930 c3         1 KUH       0.152900
      3 C14          2.1510     4.6790    24.6470 ca         1 KUH      -0.198000
      4 C15          2.2170     3.4300    24.0440 ca         1 KUH       0.001000
      5 C16          3.0300     3.2570    22.9390 ca         1 KUH      -0.315500
      6 C19          0.5520     1.7140    21.2400 c3         1 KUH       0.211800
      7 C20         -0.0350     0.3320    21.0260 c3         1 KUH      -0.095100
      8 N            6.9080     8.3290    20.6140 na         1 KUH      -0.065000
      9 C            7.2590     9.6120    20.5010 cc         1 KUH      -0.056300
     10 C1           8.5330    10.0170    19.8540 c3         1 KUH      -0.037800
     11 C10          5.2080     6.8310    21.4910 c          1 KUH       0.648700
     12 C12          2.8860     5.7390    24.1420 ca         1 KUH       0.141100
     13 C18          1.7260     2.0480    18.4400 c3         1 KUH      -0.095100
     14 C2           6.2330    10.3670    21.0770 cd         1 KUH      -0.269600
     15 C21          3.7970     4.3030    22.4280 ca         1 KUH      -0.023000
     16 C3           6.2270    11.8220    21.1500 c          1 KUH       0.616700
     17 C4           4.9480    12.5040    21.5700 c3         1 KUH      -0.172400
     18 C5           4.5230    12.2620    23.0240 c3         1 KUH      -0.061400
     19 C6           4.2510    10.8030    23.4260 c3         1 KUH      -0.069400
     20 C7           3.9760     9.8640    22.2470 c3         1 KUH      -0.018100
     21 C8           5.2440     9.4610    21.5610 cd         1 KUH      -0.040300
     22 C9           5.7100     8.1930    21.2760 cc         1 KUH      -0.270600
     23 N1           4.4450     6.6710    22.6040 ns         1 KUH      -0.134000
     24 N2           1.9740     1.7860    20.8780 n3         1 KUH      -0.745500
     25 O1           5.5010     5.9230    20.7270 o          1 KUH      -0.599100
     26 O2           2.8790     6.9790    24.6470 os         1 KUH      -0.361100
     27 O3           4.3800     1.5340    21.5110 o          1 KUH      -0.536000
     28 O4           2.5710     0.6910    23.0360 o          1 KUH      -0.536000
     29 S            3.0630     1.6960    22.1070 sy         1 KUH       1.170600
     30 H1           2.2420     8.3100    26.0160 h1         1 KUH       0.047367
     31 H2           1.0300     7.0830    25.6020 h1         1 KUH       0.047367
     32 H3           2.4070     6.6600    26.6500 h1         1 KUH       0.047367
     33 H4           1.5150     4.8060    25.5120 ha         1 KUH       0.123000
     34 H5           1.6430     2.6130    24.4570 ha         1 KUH       0.139000
     35 H6           0.3900     2.0350    22.2720 h1         1 KUH       0.047450
     36 H7           0.0270     2.4470    20.6270 h1         1 KUH       0.047450
     37 H8          -1.1000     0.3380    21.2600 hc         1 KUH       0.044700
     38 H9           0.0810     0.0090    19.9910 hc         1 KUH       0.044700
     39 H10          0.4480    -0.4030    21.6680 hc         1 KUH       0.044700
     40 H11          7.4620     7.5520    20.2850 hn         1 KUH       0.367000
     41 H12          8.3570    10.7420    19.0610 hc         1 KUH       0.061367
     42 H13          9.2060    10.4850    20.5720 hc         1 KUH       0.061367
     43 H14          9.0390     9.1550    19.4240 hc         1 KUH       0.061367
     44 H15          3.3870     2.6760    19.6200 h1         1 KUH       0.047450
     45 H16          1.9400     3.6430    19.8760 h1         1 KUH       0.047450
     46 H17          2.0220     2.6730    17.5980 hc         1 KUH       0.044700
     47 H18          2.0950     1.0380    18.2640 hc         1 KUH       0.044700
     48 H19          0.6360     2.0180    18.4570 hc         1 KUH       0.044700
     49 H20          4.4570     4.1450    21.5910 ha         1 KUH       0.169000
     50 H21          5.0750    13.5770    21.4200 hc         1 KUH       0.062700
     51 H22          4.1470    12.1880    20.8950 hc         1 KUH       0.062700
     52 H23          5.2750    12.6910    23.6890 hc         1 KUH       0.043700
     53 H24          3.6180    12.8510    23.1780 hc         1 KUH       0.043700
     54 H25          3.3970    10.7790    24.1050 hc         1 KUH       0.042200
     55 H26          5.0950    10.4020    23.9920 hc         1 KUH       0.042200
     56 H27          3.3040    10.3470    21.5310 hc         1 KUH       0.053200
     57 H28          3.4200     8.9950    22.5950 hc         1 KUH       0.053200
     58 H29          4.4230     7.4500    23.2440 hn         1 KUH       0.176000
     59 O            7.2160    12.4770    20.8590 o          1 KUH      -0.552100
     60 C17          2.3050     2.6220    19.7210 c3         1 KUH       0.211800
@<TRIPOS>BOND
     1     1    12 ar  
     2     1    15 ar  
     3     1    23 1   
     4     2    26 1   
     5     2    30 1   
     6     2    31 1   
     7     2    32 1   
     8     3     4 ar  
     9     3    12 ar  
    10     3    33 1   
    11     4     5 ar  
    12     4    34 1   
    13     5    15 ar  
    14     5    29 1   
    15     6     7 1   
    16     6    24 1   
    17     6    35 1   
    18     6    36 1   
    19     7    37 1   
    20     7    38 1   
    21     7    39 1   
    22     8     9 1   
    23     8    22 1   
    24     8    40 1   
    25     9    10 1   
    26     9    14 2   
    27    10    41 1   
    28    10    42 1   
    29    10    43 1   
    30    11    22 1   
    31    11    23 1   
    32    11    25 2   
    33    12    26 1   
    34    13    46 1   
    35    13    47 1   
    36    13    48 1   
    37    13    60 1   
    38    14    16 1   
    39    14    21 1   
    40    15    49 1   
    41    16    17 1   
    42    16    59 2   
    43    17    18 1   
    44    17    50 1   
    45    17    51 1   
    46    18    19 1   
    47    18    52 1   
    48    18    53 1   
    49    19    20 1   
    50    19    54 1   
    51    19    55 1   
    52    20    21 1   
    53    20    56 1   
    54    20    57 1   
    55    21    22 2   
    56    23    58 1   
    57    24    29 1   
    58    24    60 1   
    59    27    29 2   
    60    28    29 2   
    61    44    60 1   
    62    45    60 1   
@<TRIPOS>SUBSTRUCTURE
     1 KUH         1 TEMP              0 ****  ****    0 ROOT
