@<TRIPOS>MOLECULE
KUH
   60    62     1     0     0
SMALL
No Charge or Current Charge


@<TRIPOS>ATOM
      1 C11          3.1160     5.8680    22.7630 ca         1 KUH      -0.065000
      2 C13          0.9750     8.3170    24.6130 c3         1 KUH       0.152900
      3 C14          1.0780     5.4700    24.0560 ca         1 KUH      -0.198000
      4 C15          1.1570     4.0970    23.7750 ca         1 KUH       0.001000
      5 C16          2.2150     3.6020    22.9890 ca         1 KUH      -0.315500
      6 C19          1.5000     0.3350    20.5430 c3         1 KUH       0.211800
      7 C20          2.6860    -0.6510    20.6220 c3         1 KUH      -0.095100
      8 N            6.9690     8.1350    20.3190 na         1 KUH      -0.065000
      9 C            7.4050     9.4500    20.2560 cc         1 KUH      -0.056300
     10 C1           8.4790     9.9220    19.3070 c3         1 KUH      -0.037800
     11 C10          5.1950     6.7120    21.4910 c          1 KUH       0.648700
     12 C12          2.0540     6.3570    23.5540 ca         1 KUH       0.141100
     13 C18          0.3320     2.7600    19.1420 c3         1 KUH      -0.095100
     14 C2           6.6300    10.1450    21.1530 cd         1 KUH      -0.269600
     15 C21          3.1930     4.4840    22.4850 ca         1 KUH      -0.023000
     16 C3           6.7320    11.6230    21.3580 c          1 KUH       0.616700
     17 C4           5.5550    12.3350    22.0330 c3         1 KUH      -0.172400
     18 C5           5.4940    12.1050    23.5560 c3         1 KUH      -0.061400
     19 C6           5.6470    10.6290    23.9830 c3         1 KUH      -0.069400
     20 C7           4.9410     9.5990    23.0640 c3         1 KUH      -0.018100
     21 C8           5.7620     9.2330    21.8300 cd         1 KUH      -0.040300
     22 C9           5.9270     7.9870    21.2390 cc         1 KUH      -0.270600
     23 N1           4.0670     6.8170    22.2880 ns         1 KUH      -0.134000
     24 N2           1.7820     1.7290    20.9850 n3         1 KUH      -0.745500
     25 O1           5.5640     5.6630    20.9760 o          1 KUH      -0.599100
     26 O2           2.0080     7.7160    23.8110 os         1 KUH      -0.361100
     27 O3           3.7470     1.4950    22.5940 o          1 KUH      -0.536000
     28 O4           1.3480     1.1140    23.4360 o          1 KUH      -0.536000
     29 S            2.3210     1.8390    22.6110 sy         1 KUH       1.170600
     30 H1           1.1360     9.4000    24.6880 h1         1 KUH       0.047367
     31 H2          -0.0130     8.1510    24.1650 h1         1 KUH       0.047367
     32 H3           0.9770     7.9020    25.6280 h1         1 KUH       0.047367
     33 H4           0.2520     5.8240    24.6640 ha         1 KUH       0.123000
     34 H5           0.3930     3.4270    24.1670 ha         1 KUH       0.139000
     35 H6           0.6580    -0.0830    21.1120 h1         1 KUH       0.047450
     36 H7           1.1950     0.3340    19.4900 h1         1 KUH       0.047450
     37 H8           2.4290    -1.5830    20.1060 hc         1 KUH       0.044700
     38 H9           3.5730    -0.2270    20.1370 hc         1 KUH       0.044700
     39 H10          2.9330    -0.9050    21.6580 hc         1 KUH       0.044700
     40 H11          7.3400     7.3800    19.7490 hn         1 KUH       0.367000
     41 H12          8.1070    10.7280    18.6640 hc         1 KUH       0.061367
     42 H13          9.3480    10.2980    19.8580 hc         1 KUH       0.061367
     43 H14          8.8230     9.1100    18.6560 hc         1 KUH       0.061367
     44 H15          0.9970     3.7120    20.8990 h1         1 KUH       0.047450
     45 H16         -0.2100     2.4640    21.2140 h1         1 KUH       0.047450
     46 H17         -0.3200     3.6220    18.9570 hc         1 KUH       0.044700
     47 H18          1.2330     2.8760    18.5280 hc         1 KUH       0.044700
     48 H19         -0.2080     1.8640    18.8170 hc         1 KUH       0.044700
     49 H20          3.9980     4.0780    21.8780 ha         1 KUH       0.169000
     50 H21          5.5930    13.4100    21.8230 hc         1 KUH       0.062700
     51 H22          4.6310    11.9120    21.6240 hc         1 KUH       0.062700
     52 H23          6.2760    12.6990    24.0470 hc         1 KUH       0.043700
     53 H24          4.5350    12.4870    23.9260 hc         1 KUH       0.043700
     54 H25          5.2490    10.5290    25.0010 hc         1 KUH       0.042200
     55 H26          6.7130    10.3740    24.0510 hc         1 KUH       0.042200
     56 H27          3.9370     9.9470    22.7910 hc         1 KUH       0.053200
     57 H28          4.8050     8.7180    23.6980 hc         1 KUH       0.053200
     58 H29          3.8670     7.7610    22.5870 hn         1 KUH       0.176000
     59 O            7.7070    12.2730    20.9990 o          1 KUH      -0.552100
     60 C17          0.6980     2.6900    20.6390 c3         1 KUH       0.211800
@<TRIPOS>BOND
     1     1    12 ar  
     2     1    15 ar  
     3     1    23 1   
     4     2    26 1   
     5     2    30 1   
     6     2    31 1   
     7     2    32 1   
     8     3     4 ar  
     9     3    12 ar  
    10     3    33 1   
    11     4     5 ar  
    12     4    34 1   
    13     5    15 ar  
    14     5    29 1   
    15     6     7 1   
    16     6    24 1   
    17     6    35 1   
    18     6    36 1   
    19     7    37 1   
    20     7    38 1   
    21     7    39 1   
    22     8     9 1   
    23     8    22 1   
    24     8    40 1   
    25     9    10 1   
    26     9    14 2   
    27    10    41 1   
    28    10    42 1   
    29    10    43 1   
    30    11    22 1   
    31    11    23 1   
    32    11    25 2   
    33    12    26 1   
    34    13    46 1   
    35    13    47 1   
    36    13    48 1   
    37    13    60 1   
    38    14    16 1   
    39    14    21 1   
    40    15    49 1   
    41    16    17 1   
    42    16    59 2   
    43    17    18 1   
    44    17    50 1   
    45    17    51 1   
    46    18    19 1   
    47    18    52 1   
    48    18    53 1   
    49    19    20 1   
    50    19    54 1   
    51    19    55 1   
    52    20    21 1   
    53    20    56 1   
    54    20    57 1   
    55    21    22 2   
    56    23    58 1   
    57    24    29 1   
    58    24    60 1   
    59    27    29 2   
    60    28    29 2   
    61    44    60 1   
    62    45    60 1   
@<TRIPOS>SUBSTRUCTURE
     1 KUH         1 TEMP              0 ****  ****    0 ROOT
