@<TRIPOS>MOLECULE
KUI
   37    39     1     0     0
SMALL
abcg2


@<TRIPOS>ATOM
      1 N1         -33.4130    -5.0180    19.4240 n          1 KUI       0.115000
      2 C7         -34.6430    -6.1040    17.7090 cc         1 KUI      -0.377200
      3 C8         -34.6090    -5.0300    18.6630 c          1 KUI       0.559000
      4 N2         -32.5070    -6.8890    18.3380 na         1 KUI      -0.783000
      5 C9         -33.6430    -8.1050    16.5850 ca         1 KUI      -0.057800
      6 O1         -29.2940    -5.9020    21.2100 o          1 KUI      -0.481000
      7 C1         -28.7660    -8.0660    19.6540 c3         1 KUI       0.171600
      8 C5         -32.3990    -5.9160    19.2680 cc         1 KUI       0.303000
      9 C6         -33.6200    -6.9960    17.5540 cd         1 KUI       0.240800
     10 C4         -31.9360    -4.4420    20.8460 cd         1 KUI       0.330900
     11 C3         -31.4050    -5.5750    20.1810 cd         1 KUI      -0.316600
     12 C2         -30.1310    -6.2390    20.3970 c          1 KUI       0.654700
     13 N          -33.1320    -4.1030    20.4020 nc         1 KUI      -0.473800
     14 C          -28.8640    -9.1700    18.6290 c3         1 KUI      -0.100100
     15 O          -29.9910    -7.2930    19.5700 os         1 KUI      -0.501100
     16 C10        -32.9970    -9.3110    16.8670 ca         1 KUI      -0.090000
     17 C11        -33.0250   -10.3550    15.9530 ca         1 KUI      -0.059000
     18 C12        -33.6970   -10.1970    14.7490 ca         1 KUI      -0.170300
     19 C13        -34.3470    -8.9990    14.4560 ca         1 KUI      -0.059000
     20 C14        -34.3200    -7.9600    15.3690 ca         1 KUI      -0.090000
     21 C15        -33.7490   -11.3080    13.7400 c3         1 KUI       0.344300
     22 F          -35.0120   -11.7680    13.5610 f          1 KUI      -0.108000
     23 F1         -33.3190   -10.9010    12.5220 f          1 KUI      -0.108000
     24 F2         -32.9950   -12.3680    14.0870 f          1 KUI      -0.108000
     25 O2         -35.4780    -4.1940    18.8530 o          1 KUI      -0.460000
     26 H1         -35.5400    -6.1980    17.1180 ha         1 KUI       0.227000
     27 H3         -28.6740    -8.4550    20.6680 h1         1 KUI       0.055700
     28 H4         -27.9260    -7.3990    19.4590 h1         1 KUI       0.055700
     29 H5         -31.4690    -3.8750    21.6350 h4         1 KUI       0.058100
     30 H6         -27.9580    -9.7760    18.6630 hc         1 KUI       0.046367
     31 H7         -29.7190    -9.8160    18.8330 hc         1 KUI       0.046367
     32 H8         -28.9660    -8.7600    17.6230 hc         1 KUI       0.046367
     33 H9         -32.4880    -9.4590    17.8100 ha         1 KUI       0.131500
     34 H10        -32.5270   -11.2850    16.1860 ha         1 KUI       0.140000
     35 H11        -34.8640    -8.8740    13.5140 ha         1 KUI       0.140000
     36 H12        -34.8050    -7.0260    15.1260 ha         1 KUI       0.131500
     37 H2         -31.7070    -7.4960    18.2140 hn         1 KUI       0.547000
@<TRIPOS>BOND
     1     1     3 1   
     2     1     8 1   
     3     1    13 1   
     4     2     3 1   
     5     2     9 2   
     6     2    26 1   
     7     3    25 2   
     8     4     8 1   
     9     4     9 1   
    10     4    37 1   
    11     5     9 1   
    12     5    16 ar  
    13     5    20 ar  
    14     6    12 2   
    15     7    14 1   
    16     7    15 1   
    17     7    27 1   
    18     7    28 1   
    19     8    11 2   
    20    10    11 1   
    21    10    13 2   
    22    10    29 1   
    23    11    12 1   
    24    12    15 1   
    25    14    30 1   
    26    14    31 1   
    27    14    32 1   
    28    16    17 ar  
    29    16    33 1   
    30    17    18 ar  
    31    17    34 1   
    32    18    19 ar  
    33    18    21 1   
    34    19    20 ar  
    35    19    35 1   
    36    20    36 1   
    37    21    22 1   
    38    21    23 1   
    39    21    24 1   
@<TRIPOS>SUBSTRUCTURE
     1 KUI         1 TEMP              0 ****  ****    0 ROOT
