@<TRIPOS>MOLECULE
KUI
   37    39     1     0     0
SMALL
No Charge or Current Charge


@<TRIPOS>ATOM
      1 N1         -33.4530    -4.7540    19.4350 n          1 KUI       0.115000
      2 C7         -34.5520    -5.9250    17.6530 cc         1 KUI      -0.377200
      3 C8         -34.5720    -4.7870    18.6020 c          1 KUI       0.559000
      4 N2         -32.5050    -6.7390    18.4370 na         1 KUI      -0.783000
      5 C9         -33.5880    -8.0320    16.5620 ca         1 KUI      -0.057800
      6 O1         -29.4150    -6.0640    21.2350 o          1 KUI      -0.481000
      7 C1         -28.9600    -8.2690    19.6960 c3         1 KUI       0.171600
      8 C5         -32.4970    -5.6970    19.3260 cc         1 KUI       0.303000
      9 C6         -33.5640    -6.9050    17.5340 cd         1 KUI       0.240800
     10 C4         -31.8630    -4.3720    20.9040 cd         1 KUI       0.330900
     11 C3         -31.4640    -5.5470    20.1960 cd         1 KUI      -0.316600
     12 C2         -30.2490    -6.3530    20.3900 c          1 KUI       0.654700
     13 N          -33.0310    -3.9100    20.4540 nc         1 KUI      -0.473800
     14 C          -29.0720    -9.3970    18.6590 c3         1 KUI      -0.100100
     15 O          -30.1270    -7.4390    19.5570 os         1 KUI      -0.501100
     16 C10        -32.5310    -8.9720    16.5240 ca         1 KUI      -0.090000
     17 C11        -32.5390   -10.0430    15.6140 ca         1 KUI      -0.059000
     18 C12        -33.6080   -10.2120    14.7130 ca         1 KUI      -0.170300
     19 C13        -34.6610    -9.2760    14.7350 ca         1 KUI      -0.059000
     20 C14        -34.6530    -8.2050    15.6460 ca         1 KUI      -0.090000
     21 C15        -33.6130   -11.3720    13.7110 c3         1 KUI       0.344300
     22 F          -34.8650   -11.7780    13.3990 f          1 KUI      -0.108000
     23 F1         -33.0100   -11.0230    12.5530 f          1 KUI      -0.108000
     24 F2         -32.9620   -12.4610    14.1820 f          1 KUI      -0.108000
     25 O2         -35.4790    -3.9640    18.6470 o          1 KUI      -0.460000
     26 H1         -35.4250    -5.9310    17.0190 ha         1 KUI       0.227000
     27 H3         -28.9030    -8.7020    20.7030 h1         1 KUI       0.055700
     28 H4         -28.0430    -7.6920    19.5110 h1         1 KUI       0.055700
     29 H5         -31.3500    -3.8590    21.7080 h4         1 KUI       0.058100
     30 H6         -28.2010   -10.0600    18.7260 hc         1 KUI       0.046367
     31 H7         -29.9730    -9.9970    18.8360 hc         1 KUI       0.046367
     32 H8         -29.1130    -8.9870    17.6430 hc         1 KUI       0.046367
     33 H9         -31.6860    -8.8880    17.1990 ha         1 KUI       0.131500
     34 H10        -31.7030   -10.7400    15.6130 ha         1 KUI       0.140000
     35 H11        -35.4950    -9.3710    14.0410 ha         1 KUI       0.140000
     36 H12        -35.4910    -7.5170    15.6190 ha         1 KUI       0.131500
     37 H2         -31.7180    -7.3870    18.4560 hn         1 KUI       0.547000
@<TRIPOS>BOND
     1     1     3 1   
     2     1     8 1   
     3     1    13 1   
     4     2     3 1   
     5     2     9 2   
     6     2    26 1   
     7     3    25 2   
     8     4     8 1   
     9     4     9 1   
    10     4    37 1   
    11     5     9 1   
    12     5    16 ar  
    13     5    20 ar  
    14     6    12 2   
    15     7    14 1   
    16     7    15 1   
    17     7    27 1   
    18     7    28 1   
    19     8    11 2   
    20    10    11 1   
    21    10    13 2   
    22    10    29 1   
    23    11    12 1   
    24    12    15 1   
    25    14    30 1   
    26    14    31 1   
    27    14    32 1   
    28    16    17 ar  
    29    16    33 1   
    30    17    18 ar  
    31    17    34 1   
    32    18    19 ar  
    33    18    21 1   
    34    19    20 ar  
    35    19    35 1   
    36    20    36 1   
    37    21    22 1   
    38    21    23 1   
    39    21    24 1   
@<TRIPOS>SUBSTRUCTURE
     1 KUI         1 TEMP              0 ****  ****    0 ROOT
