@<TRIPOS>MOLECULE
KUJ
   97   100     1     0     0
SMALL
No Charge or Current Charge


@<TRIPOS>ATOM
      1 C01        -41.6590     1.5510    41.3100 c3         1 KUJ       0.200800
      2 C02        -41.1940     0.1150    41.0450 c2         1 KUJ      -0.138400
      3 C03        -41.6450    -0.9720    41.7130 c2         1 KUJ      -0.143200
      4 C04        -42.6210    -1.0310    42.8850 c3         1 KUJ      -0.034500
      5 C05        -42.0990    -2.0100    43.9590 c3         1 KUJ      -0.089100
      6 C06        -44.0620    -1.4020    42.4460 c3         1 KUJ      -0.067400
      7 C07        -44.7080    -0.3900    41.4670 c3         1 KUJ      -0.117400
      8 C08        -46.2270    -0.5810    41.2490 c3         1 KUJ       0.217500
      9 C09        -46.7840     0.5110    40.3580 c2         1 KUJ      -0.229200
     10 C10        -46.8330     0.4940    39.0150 c2         1 KUJ      -0.168200
     11 C11        -47.2370     1.6640    38.1320 c3         1 KUJ      -0.026500
     12 C12        -48.7740     1.7220    37.9890 c3         1 KUJ      -0.084100
     13 C13        -46.5120     1.6210    36.7550 c5         1 KUJ       0.168300
     14 C14        -44.3760     1.9930    35.8210 c5         1 KUJ       0.139300
     15 C15        -43.2430     1.0490    35.2890 c3         1 KUJ       0.159300
     16 C17        -42.1900     1.8020    34.4530 c3         1 KUJ      -0.092100
     17 C18        -45.4750     2.4730    34.8250 c5         1 KUJ      -0.102400
     18 C19        -46.6080     2.8670    35.8180 c5         1 KUJ      -0.089700
     19 C20        -46.4070     4.2490    36.4960 c3         1 KUJ      -0.083100
     20 C21        -40.0880    -0.0650    39.9850 c6         1 KUJ       0.241500
     21 C22        -38.9120     0.9530    40.0990 c6         1 KUJ      -0.092700
     22 C23        -38.1940     0.8200    41.4760 c6         1 KUJ      -0.070400
     23 C24        -37.0040     1.7970    41.5880 c6         1 KUJ      -0.073400
     24 C25        -35.9980     1.5690    40.4390 c6         1 KUJ      -0.076400
     25 C26        -36.6780     1.7030    39.0490 c6         1 KUJ      -0.052700
     26 C27        -35.6230     1.4930    37.9240 c3         1 KUJ      -0.091100
     27 C28        -37.9030     0.7250    38.9390 c6         1 KUJ      -0.051700
     28 C29        -38.6500     0.7780    37.5680 c6         1 KUJ      -0.088500
     29 C30        -39.1330     2.1940    37.1310 c3         1 KUJ      -0.080100
     30 C31        -39.8830    -0.1890    37.5490 c2         1 KUJ       0.313900
     31 C32        -40.2560    -1.0430    36.5390 ce         1 KUJ      -0.467400
     32 C33        -41.4000    -1.9610    36.6090 c          1 KUJ       0.579300
     33 C34        -41.3520    -2.7040    35.2680 c5         1 KUJ       0.042600
     34 C35        -39.5890    -1.2090    35.2360 c          1 KUJ       0.690300
     35 O01        -42.1730     2.1570    40.1200 oh         1 KUJ      -0.651000
     36 O02        -45.0920     1.4100    36.9370 os         1 KUJ      -0.460000
     37 O03        -43.7510     0.0040    34.4210 os         1 KUJ      -0.480000
     38 O04        -46.4850    -1.8620    40.6710 oh         1 KUJ      -0.659000
     39 O05        -40.6730    -0.0910    38.6680 os         1 KUJ      -0.305100
     40 O06        -42.1820    -2.1200    37.5370 o          1 KUJ      -0.519100
     41 O07        -40.2240    -2.1820    34.5170 os         1 KUJ      -0.428100
     42 O08        -38.6280    -0.5920    34.8130 o          1 KUJ      -0.528000
     43 H1         -40.8270     2.1470    41.7070 h1         1 KUJ       0.028200
     44 H2         -42.4370     1.5710    42.0800 h1         1 KUJ       0.028200
     45 H3         -41.2510    -1.9550    41.4470 ha         1 KUJ       0.177000
     46 H4         -42.6740    -0.0550    43.3790 hc         1 KUJ       0.049700
     47 H5         -42.7560    -2.0090    44.8380 hc         1 KUJ       0.038033
     48 H6         -42.0510    -3.0340    43.5680 hc         1 KUJ       0.038033
     49 H7         -41.0940    -1.7210    44.2880 hc         1 KUJ       0.038033
     50 H8         -44.6910    -1.4720    43.3420 hc         1 KUJ       0.042200
     51 H9         -44.0510    -2.3990    41.9870 hc         1 KUJ       0.042200
     52 H10        -44.1920    -0.4320    40.4990 hc         1 KUJ       0.062200
     53 H11        -44.5560     0.6220    41.8580 hc         1 KUJ       0.062200
     54 H12        -46.7240    -0.5140    42.2260 h1         1 KUJ       0.024700
     55 H13        -47.0980     1.4000    40.9050 ha         1 KUJ       0.163000
     56 H14        -46.4860    -0.3860    38.4690 ha         1 KUJ       0.187000
     57 H15        -46.9350     2.5830    38.6480 hc         1 KUJ       0.055700
     58 H16        -49.2500     1.7830    38.9750 hc         1 KUJ       0.036033
     59 H17        -49.0800     2.6020    37.4110 hc         1 KUJ       0.036033
     60 H18        -49.1510     0.8270    37.4800 hc         1 KUJ       0.036033
     61 H19        -46.9070     0.7480    36.2190 h1         1 KUJ       0.041700
     62 H20        -43.8670     2.8780    36.2260 h1         1 KUJ       0.050700
     63 H21        -42.7310     0.6120    36.1570 h1         1 KUJ       0.053700
     64 H22        -44.7230    -1.8450    34.3670 h1         1 KUJ       0.035033
     65 H23        -44.2510    -1.3030    35.9920 h1         1 KUJ       0.035033
     66 H24        -45.6360    -0.5580    35.1580 h1         1 KUJ       0.035033
     67 H25        -41.7470     2.6160    35.0380 hc         1 KUJ       0.045367
     68 H26        -41.3850     1.1240    34.1470 hc         1 KUJ       0.045367
     69 H27        -42.6430     2.2350    33.5530 hc         1 KUJ       0.045367
     70 H28        -45.1400     3.3120    34.2050 hc         1 KUJ       0.060200
     71 H29        -45.7940     1.6750    34.1460 hc         1 KUJ       0.060200
     72 H30        -47.5780     2.9030    35.3070 hc         1 KUJ       0.059700
     73 H31        -47.2560     4.4960    37.1440 hc         1 KUJ       0.034700
     74 H32        -45.5010     4.2790    37.1130 hc         1 KUJ       0.034700
     75 H33        -46.3280     5.0440    35.7460 hc         1 KUJ       0.034700
     76 H34        -39.6430    -1.0600    40.1350 h1         1 KUJ       0.061700
     77 H35        -39.3060     1.9730    40.0110 hc         1 KUJ       0.070700
     78 H36        -38.8930     1.0120    42.3000 hc         1 KUJ       0.044700
     79 H37        -37.8360    -0.2100    41.6140 hc         1 KUJ       0.044700
     80 H38        -36.5020     1.6630    42.5550 hc         1 KUJ       0.043200
     81 H39        -37.3690     2.8330    41.5640 hc         1 KUJ       0.043200
     82 H40        -35.5450     0.5720    40.5400 hc         1 KUJ       0.044200
     83 H41        -35.1760     2.2930    40.5280 hc         1 KUJ       0.044200
     84 H42        -37.0300     2.7390    38.9550 hc         1 KUJ       0.048700
     85 H43        -34.7460     2.1330    38.0820 hc         1 KUJ       0.040367
     86 H44        -35.2730     0.4540    37.8930 hc         1 KUJ       0.040367
     87 H45        -36.0230     1.7450    36.9360 hc         1 KUJ       0.040367
     88 H46        -37.5090    -0.2970    39.0430 hc         1 KUJ       0.054700
     89 H47        -37.9280     0.4540    36.8160 hc         1 KUJ       0.106700
     90 H48        -38.3050     2.9060    37.0470 hc         1 KUJ       0.048700
     91 H49        -39.6090     2.1480    36.1450 hc         1 KUJ       0.048700
     92 H50        -39.8690     2.6100    37.8290 hc         1 KUJ       0.048700
     93 H53        -42.2820    -2.5260    34.7150 h1         1 KUJ       0.085700
     94 H54        -41.2180    -3.7770    35.4500 h1         1 KUJ       0.085700
     95 H55        -42.5050     3.0440    40.3740 ho         1 KUJ       0.438000
     96 H56        -46.1070    -2.5250    41.2860 ho         1 KUJ       0.439000
     97 C16        -44.6310    -0.9670    35.0190 c3         1 KUJ       0.145900
@<TRIPOS>BOND
     1     1     2 1   
     2     1    35 1   
     3     1    43 1   
     4     1    44 1   
     5     2     3 2   
     6     2    20 1   
     7     3     4 1   
     8     3    45 1   
     9     4     5 1   
    10     4     6 1   
    11     4    46 1   
    12     5    47 1   
    13     5    48 1   
    14     5    49 1   
    15     6     7 1   
    16     6    50 1   
    17     6    51 1   
    18     7     8 1   
    19     7    52 1   
    20     7    53 1   
    21     8     9 1   
    22     8    38 1   
    23     8    54 1   
    24     9    10 2   
    25     9    55 1   
    26    10    11 1   
    27    10    56 1   
    28    11    12 1   
    29    11    13 1   
    30    11    57 1   
    31    12    58 1   
    32    12    59 1   
    33    12    60 1   
    34    13    18 1   
    35    13    36 1   
    36    13    61 1   
    37    14    15 1   
    38    14    17 1   
    39    14    36 1   
    40    14    62 1   
    41    15    16 1   
    42    15    37 1   
    43    15    63 1   
    44    16    67 1   
    45    16    68 1   
    46    16    69 1   
    47    17    18 1   
    48    17    70 1   
    49    17    71 1   
    50    18    19 1   
    51    18    72 1   
    52    19    73 1   
    53    19    74 1   
    54    19    75 1   
    55    20    21 1   
    56    20    39 1   
    57    20    76 1   
    58    21    22 1   
    59    21    27 1   
    60    21    77 1   
    61    22    23 1   
    62    22    78 1   
    63    22    79 1   
    64    23    24 1   
    65    23    80 1   
    66    23    81 1   
    67    24    25 1   
    68    24    82 1   
    69    24    83 1   
    70    25    26 1   
    71    25    27 1   
    72    25    84 1   
    73    26    85 1   
    74    26    86 1   
    75    26    87 1   
    76    27    28 1   
    77    27    88 1   
    78    28    29 1   
    79    28    30 1   
    80    28    89 1   
    81    29    90 1   
    82    29    91 1   
    83    29    92 1   
    84    30    31 2   
    85    30    39 1   
    86    31    32 1   
    87    31    34 1   
    88    32    33 1   
    89    32    40 2   
    90    33    41 1   
    91    33    93 1   
    92    33    94 1   
    93    34    41 1   
    94    34    42 2   
    95    35    95 1   
    96    37    97 1   
    97    38    96 1   
    98    64    97 1   
    99    65    97 1   
   100    66    97 1   
@<TRIPOS>SUBSTRUCTURE
     1 KUJ         1 TEMP              0 ****  ****    0 ROOT
