@<TRIPOS>MOLECULE
KUJ
   97   100     1     0     0
SMALL
abcg2


@<TRIPOS>ATOM
      1 C01        -41.5660     1.4580    41.2210 c3         1 KUJ       0.200800
      2 C02        -41.0590     0.0470    41.1450 c2         1 KUJ      -0.138400
      3 C03        -41.5460    -0.9600    41.8750 c2         1 KUJ      -0.143200
      4 C04        -42.6430    -0.9410    42.9040 c3         1 KUJ      -0.034500
      5 C05        -42.2620    -1.8580    44.0720 c3         1 KUJ      -0.089100
      6 C06        -44.0010    -1.3570    42.3020 c3         1 KUJ      -0.067400
      7 C07        -44.5720    -0.3200    41.3420 c3         1 KUJ      -0.117400
      8 C08        -46.0070    -0.6000    40.8820 c3         1 KUJ       0.217500
      9 C09        -46.5050     0.5570    40.0700 c2         1 KUJ      -0.229200
     10 C10        -46.9710     0.5090    38.8300 c2         1 KUJ      -0.168200
     11 C11        -47.3440     1.7160    38.0140 c3         1 KUJ      -0.026500
     12 C12        -48.8420     1.7230    37.6820 c3         1 KUJ      -0.084100
     13 C13        -46.5230     1.7190    36.7270 c5         1 KUJ       0.168300
     14 C14        -44.3350     2.1260    35.9670 c5         1 KUJ       0.139300
     15 C15        -43.3900     1.0480    35.4310 c3         1 KUJ       0.159300
     16 C17        -42.4260     1.6250    34.4080 c3         1 KUJ      -0.092100
     17 C18        -45.3370     2.6970    34.9530 c5         1 KUJ      -0.102400
     18 C19        -46.6020     2.9330    35.7930 c5         1 KUJ      -0.089700
     19 C20        -46.5730     4.2790    36.5160 c3         1 KUJ      -0.083100
     20 C21        -39.8930    -0.2340    40.2290 c6         1 KUJ       0.241500
     21 C22        -38.8130     0.8350    40.2110 c6         1 KUJ      -0.092700
     22 C23        -38.0350     0.7750    41.5300 c6         1 KUJ      -0.070400
     23 C24        -36.8860     1.7780    41.5390 c6         1 KUJ      -0.073400
     24 C25        -35.9710     1.5710    40.3340 c6         1 KUJ      -0.076400
     25 C26        -36.7350     1.6610    39.0080 c6         1 KUJ      -0.052700
     26 C27        -35.7910     1.4670    37.8230 c3         1 KUJ      -0.091100
     27 C28        -37.8970     0.6520    39.0000 c6         1 KUJ      -0.051700
     28 C29        -38.7310     0.6980    37.7090 c6         1 KUJ      -0.088500
     29 C30        -39.3640     2.0710    37.3910 c3         1 KUJ      -0.080100
     30 C31        -39.8330    -0.3130    37.7620 c2         1 KUJ       0.313900
     31 C32        -40.2790    -1.0020    36.6450 ce         1 KUJ      -0.467400
     32 C33        -41.2560    -2.0680    36.6170 c          1 KUJ       0.579300
     33 C34        -41.3190    -2.5350    35.1730 c5         1 KUJ       0.042600
     34 C35        -39.7720    -0.8230    35.2880 c          1 KUJ       0.690300
     35 O01        -41.9860     1.8750    39.9110 oh         1 KUJ      -0.651000
     36 O02        -45.1280     1.6110    37.0520 os         1 KUJ      -0.460000
     37 O03        -44.0660    -0.0420    34.8020 os         1 KUJ      -0.480000
     38 O04        -46.0960    -1.8020    40.1080 oh         1 KUJ      -0.659000
     39 O05        -40.4510    -0.5570    38.8850 os         1 KUJ      -0.305100
     40 O06        -41.9250    -2.5650    37.5110 o          1 KUJ      -0.519100
     41 O07        -40.3880    -1.7130    34.4530 os         1 KUJ      -0.428100
     42 O08        -38.9550    -0.0520    34.8320 o          1 KUJ      -0.528000
     43 H1         -40.7730     2.1230    41.5780 h1         1 KUJ       0.028200
     44 H2         -42.3950     1.5300    41.9220 h1         1 KUJ       0.028200
     45 H3         -41.0890    -1.9380    41.7320 ha         1 KUJ       0.177000
     46 H4         -42.7600     0.0710    43.2970 hc         1 KUJ       0.049700
     47 H5         -43.0240    -1.8190    44.8530 hc         1 KUJ       0.038033
     48 H6         -42.1720    -2.8950    43.7360 hc         1 KUJ       0.038033
     49 H7         -41.3070    -1.5620    44.5100 hc         1 KUJ       0.038033
     50 H8         -44.7020    -1.5040    43.1300 hc         1 KUJ       0.042200
     51 H9         -43.8880    -2.3250    41.8040 hc         1 KUJ       0.042200
     52 H10        -43.9400    -0.2250    40.4560 hc         1 KUJ       0.062200
     53 H11        -44.5750     0.6570    41.8350 hc         1 KUJ       0.062200
     54 H12        -46.6380    -0.7070    41.7770 h1         1 KUJ       0.024700
     55 H13        -46.4020     1.5200    40.5630 ha         1 KUJ       0.163000
     56 H14        -47.0680    -0.4520    38.3320 ha         1 KUJ       0.187000
     57 H15        -47.1000     2.6120    38.5900 hc         1 KUJ       0.055700
     58 H16        -49.4330     1.7370    38.5990 hc         1 KUJ       0.036033
     59 H17        -49.1140     2.5960    37.0870 hc         1 KUJ       0.036033
     60 H18        -49.1170     0.8290    37.1170 hc         1 KUJ       0.036033
     61 H19        -46.8230     0.8330    36.1480 h1         1 KUJ       0.041700
     62 H20        -43.7040     2.9210    36.3800 h1         1 KUJ       0.050700
     63 H21        -42.8260     0.6560    36.2870 h1         1 KUJ       0.053700
     64 H22        -44.7100    -1.9460    35.0840 h1         1 KUJ       0.035033
     65 H23        -43.9640    -1.2120    36.5230 h1         1 KUJ       0.035033
     66 H24        -45.6030    -0.7460    36.0380 h1         1 KUJ       0.035033
     67 H25        -41.8540     2.4460    34.8420 hc         1 KUJ       0.045367
     68 H26        -41.7310     0.8560    34.0740 hc         1 KUJ       0.045367
     69 H27        -42.9680     2.0010    33.5390 hc         1 KUJ       0.045367
     70 H28        -44.9690     3.6060    34.4790 hc         1 KUJ       0.060200
     71 H29        -45.5330     1.9580    34.1750 hc         1 KUJ       0.060200
     72 H30        -47.4960     2.8730    35.1700 hc         1 KUJ       0.059700
     73 H31        -47.4640     4.4290    37.1270 hc         1 KUJ       0.034700
     74 H32        -45.7000     4.3600    37.1680 hc         1 KUJ       0.034700
     75 H33        -46.5250     5.0930    35.7900 hc         1 KUJ       0.034700
     76 H34        -39.4420    -1.1830    40.5190 h1         1 KUJ       0.061700
     77 H35        -39.2770     1.8190    40.1320 hc         1 KUJ       0.070700
     78 H36        -38.7100     0.9590    42.3700 hc         1 KUJ       0.044700
     79 H37        -37.6370    -0.2380    41.6590 hc         1 KUJ       0.044700
     80 H38        -36.3180     1.6830    42.4680 hc         1 KUJ       0.043200
     81 H39        -37.2910     2.7950    41.5160 hc         1 KUJ       0.043200
     82 H40        -35.4920     0.5870    40.4040 hc         1 KUJ       0.044200
     83 H41        -35.1690     2.3140    40.3360 hc         1 KUJ       0.044200
     84 H42        -37.1620     2.6680    38.9510 hc         1 KUJ       0.048700
     85 H43        -34.9400     2.1460    37.9020 hc         1 KUJ       0.040367
     86 H44        -35.4050     0.4440    37.8020 hc         1 KUJ       0.040367
     87 H45        -36.2810     1.6610    36.8670 hc         1 KUJ       0.040367
     88 H46        -37.4520    -0.3500    39.0590 hc         1 KUJ       0.054700
     89 H47        -38.1040     0.4300    36.8650 hc         1 KUJ       0.106700
     90 H48        -38.5850     2.8250    37.2910 hc         1 KUJ       0.048700
     91 H49        -39.9090     2.0200    36.4490 hc         1 KUJ       0.048700
     92 H50        -40.0580     2.3800    38.1720 hc         1 KUJ       0.048700
     93 H53        -42.3170    -2.3970    34.7570 h1         1 KUJ       0.085700
     94 H54        -41.0250    -3.5820    35.0840 h1         1 KUJ       0.085700
     95 H55        -42.1200     2.8300    39.9310 ho         1 KUJ       0.438000
     96 H56        -45.8730    -2.5450    40.6820 ho         1 KUJ       0.439000
     97 C16        -44.6170    -1.0280    35.6660 c3         1 KUJ       0.145900
@<TRIPOS>BOND
     1     1     2 1   
     2     1    35 1   
     3     1    43 1   
     4     1    44 1   
     5     2     3 2   
     6     2    20 1   
     7     3     4 1   
     8     3    45 1   
     9     4     5 1   
    10     4     6 1   
    11     4    46 1   
    12     5    47 1   
    13     5    48 1   
    14     5    49 1   
    15     6     7 1   
    16     6    50 1   
    17     6    51 1   
    18     7     8 1   
    19     7    52 1   
    20     7    53 1   
    21     8     9 1   
    22     8    38 1   
    23     8    54 1   
    24     9    10 2   
    25     9    55 1   
    26    10    11 1   
    27    10    56 1   
    28    11    12 1   
    29    11    13 1   
    30    11    57 1   
    31    12    58 1   
    32    12    59 1   
    33    12    60 1   
    34    13    18 1   
    35    13    36 1   
    36    13    61 1   
    37    14    15 1   
    38    14    17 1   
    39    14    36 1   
    40    14    62 1   
    41    15    16 1   
    42    15    37 1   
    43    15    63 1   
    44    16    67 1   
    45    16    68 1   
    46    16    69 1   
    47    17    18 1   
    48    17    70 1   
    49    17    71 1   
    50    18    19 1   
    51    18    72 1   
    52    19    73 1   
    53    19    74 1   
    54    19    75 1   
    55    20    21 1   
    56    20    39 1   
    57    20    76 1   
    58    21    22 1   
    59    21    27 1   
    60    21    77 1   
    61    22    23 1   
    62    22    78 1   
    63    22    79 1   
    64    23    24 1   
    65    23    80 1   
    66    23    81 1   
    67    24    25 1   
    68    24    82 1   
    69    24    83 1   
    70    25    26 1   
    71    25    27 1   
    72    25    84 1   
    73    26    85 1   
    74    26    86 1   
    75    26    87 1   
    76    27    28 1   
    77    27    88 1   
    78    28    29 1   
    79    28    30 1   
    80    28    89 1   
    81    29    90 1   
    82    29    91 1   
    83    29    92 1   
    84    30    31 2   
    85    30    39 1   
    86    31    32 1   
    87    31    34 1   
    88    32    33 1   
    89    32    40 2   
    90    33    41 1   
    91    33    93 1   
    92    33    94 1   
    93    34    41 1   
    94    34    42 2   
    95    35    95 1   
    96    37    97 1   
    97    38    96 1   
    98    64    97 1   
    99    65    97 1   
   100    66    97 1   
@<TRIPOS>SUBSTRUCTURE
     1 KUJ         1 TEMP              0 ****  ****    0 ROOT
