@<TRIPOS>MOLECULE
KUK
   50    52     1     0     0
SMALL
abcg2


@<TRIPOS>ATOM
      1 C15        -52.9390    32.2800    -4.0380 ca         1 KUK      -0.091000
      2 C17        -53.2500    30.1030    -2.8420 c          1 KUK       0.492600
      3 C20        -53.1320    27.9140    -1.7130 c3         1 KUK      -0.052300
      4 C21        -54.1400    26.8830    -2.2290 c3         1 KUK      -0.067400
      5 C22        -55.4660    27.5000    -2.6820 c3         1 KUK      -0.124700
      6 C28        -51.8670    27.1720    -1.1960 c          1 KUK       0.716000
      7 C02        -50.1250    38.8870    -7.6420 ce         1 KUK       0.957200
      8 N03        -50.8010    38.2050    -8.6070 ne         1 KUK      -0.882000
      9 C04        -50.4990    36.9490    -8.7570 c2         1 KUK       0.749200
     10 N05        -51.1520    36.2020    -9.6230 nv         1 KUK      -1.006200
     11 C06        -49.3380    36.3220    -8.0270 c6         1 KUK      -0.130600
     12 N07        -49.5020    34.9180    -7.8080 ns         1 KUK      -0.503900
     13 C08        -50.4230    34.5390    -6.8750 c          1 KUK       0.650100
     14 O09        -51.2510    35.3280    -6.4520 o          1 KUK      -0.604100
     15 N10        -50.3490    33.2230    -6.5080 ns         1 KUK      -0.144000
     16 C11        -51.1460    32.5530    -5.5950 ca         1 KUK      -0.067000
     17 C12        -50.8150    31.2180    -5.3150 ca         1 KUK       0.284900
     18 N13        -51.4770    30.4650    -4.4650 nb         1 KUK      -0.622000
     19 C14        -52.5260    30.9750    -3.8250 ca         1 KUK       0.274500
     20 C16        -52.2500    33.0850    -4.9290 ca         1 KUK      -0.116000
     21 O18        -54.2130    30.5340    -2.2160 o          1 KUK      -0.650100
     22 N19        -52.7540    28.8690    -2.7260 ns         1 KUK      -0.440900
     23 C23        -56.4420    26.4590    -3.0840 cc         1 KUK       0.425800
     24 N24        -56.3620    25.6950    -4.1770 na         1 KUK      -0.220700
     25 N25        -57.3830    24.8550    -4.2000 nc         1 KUK      -0.234800
     26 N26        -58.0680    25.0980    -3.1540 nd         1 KUK      -0.063000
     27 N27        -57.5200    26.0810    -2.4380 nd         1 KUK      -0.404000
     28 O29        -50.8180    27.3300    -1.8480 o          1 KUK      -0.712500
     29 O30        -52.0400    26.4720    -0.1840 o          1 KUK      -0.712500
     30 C31        -48.9880    37.1090    -6.7540 c          1 KUK       0.730500
     31 O32        -48.3730    36.5400    -5.8690 o          1 KUK      -0.546100
     32 N33        -49.3040    38.4140    -6.7160 nf         1 KUK      -0.822100
     33 H1         -53.7950    32.6760    -3.5090 ha         1 KUK       0.147000
     34 H2         -53.5860    28.4530    -0.8770 h1         1 KUK       0.066700
     35 H3         -54.3310    26.1650    -1.4300 hc         1 KUK       0.052200
     36 H4         -53.6910    26.3270    -3.0580 hc         1 KUK       0.052200
     37 H5         -55.3030    28.1830    -3.5170 hc         1 KUK       0.076200
     38 H6         -55.9080    28.0770    -1.8700 hc         1 KUK       0.076200
     39 H7         -51.0220    40.6000    -8.2750 hn         1 KUK       0.506500
     40 H8         -49.9500    40.7810    -6.9270 hn         1 KUK       0.506500
     41 H9         -51.9120    36.5910   -10.1590 hn         1 KUK       0.508000
     42 H10        -50.9260    35.2290    -9.7490 hn         1 KUK       0.508000
     43 H11        -48.4770    36.4460    -8.6970 h1         1 KUK       0.088700
     44 H12        -48.7070    34.3290    -8.0030 hn         1 KUK       0.317500
     45 H13        -49.6100    32.6700    -6.9200 hn         1 KUK       0.148000
     46 H14        -49.9650    30.7590    -5.8130 h4         1 KUK       0.010100
     47 H15        -52.5710    34.1000    -5.0920 ha         1 KUK       0.149000
     48 H16        -51.8810    28.6670    -3.1970 hn         1 KUK       0.356500
     49 H17        -55.6700    25.6940    -4.9150 hn         1 KUK       0.383000
     50 N01        -50.3730    40.1930    -7.6240 nv         1 KUK      -1.017200
@<TRIPOS>BOND
     1     1    19 ar  
     2     1    20 ar  
     3     1    33 1   
     4     2    19 1   
     5     2    21 2   
     6     2    22 1   
     7     3     4 1   
     8     3     6 1   
     9     3    22 1   
    10     3    34 1   
    11     4     5 1   
    12     4    35 1   
    13     4    36 1   
    14     5    23 1   
    15     5    37 1   
    16     5    38 1   
    17     6    28 1   
    18     6    29 1   
    19     7     8 1   
    20     7    32 2   
    21     7    50 1   
    22     8     9 2   
    23     9    10 1   
    24     9    11 1   
    25    10    41 1   
    26    10    42 1   
    27    11    12 1   
    28    11    30 1   
    29    11    43 1   
    30    12    13 1   
    31    12    44 1   
    32    13    14 2   
    33    13    15 1   
    34    15    16 1   
    35    15    45 1   
    36    16    17 ar  
    37    16    20 ar  
    38    17    18 ar  
    39    17    46 1   
    40    18    19 ar  
    41    20    47 1   
    42    22    48 1   
    43    23    24 1   
    44    23    27 2   
    45    24    25 1   
    46    24    49 1   
    47    25    26 2   
    48    26    27 1   
    49    30    31 2   
    50    30    32 1   
    51    39    50 1   
    52    40    50 1   
@<TRIPOS>SUBSTRUCTURE
     1 KUK         1 TEMP              0 ****  ****    0 ROOT
