@<TRIPOS>MOLECULE
KUK
   50    52     1     0     0
SMALL
No Charge or Current Charge


@<TRIPOS>ATOM
      1 C15        -52.6740    32.3260    -3.6210 ca         1 KUK      -0.091000
      2 C17        -53.0340    30.0670    -2.4980 c          1 KUK       0.492600
      3 C20        -53.1230    27.6760    -1.5880 c3         1 KUK      -0.052300
      4 C21        -54.1950    26.8220    -2.3140 c3         1 KUK      -0.067400
      5 C22        -55.4630    27.6030    -2.7360 c3         1 KUK      -0.124700
      6 C28        -51.9580    26.7860    -1.0570 c          1 KUK       0.716000
      7 C02        -50.6700    38.5390    -7.6070 ce         1 KUK       0.957200
      8 N03        -51.0860    37.8810    -8.6970 ne         1 KUK      -0.882000
      9 C04        -50.3670    36.8730    -8.9740 c2         1 KUK       0.749200
     10 N05        -50.8070    36.1800   -10.0370 nv         1 KUK      -1.006200
     11 C06        -49.1460    36.3550    -8.2500 c6         1 KUK      -0.130600
     12 N07        -49.3390    34.9920    -7.6340 ns         1 KUK      -0.503900
     13 C08        -50.2700    34.6790    -6.6660 c          1 KUK       0.650100
     14 O09        -51.0540    35.5110    -6.2380 o          1 KUK      -0.604100
     15 N10        -50.2040    33.3550    -6.2610 ns         1 KUK      -0.144000
     16 C11        -50.9560    32.6110    -5.3060 ca         1 KUK      -0.067000
     17 C12        -50.6420    31.2490    -5.1180 ca         1 KUK       0.284900
     18 N13        -51.2840    30.4430    -4.2420 nb         1 KUK      -0.622000
     19 C14        -52.2970    30.9710    -3.4930 ca         1 KUK       0.274500
     20 C16        -52.0020    33.1590    -4.5330 ca         1 KUK      -0.116000
     21 O18        -53.9540    30.4560    -1.7830 o          1 KUK      -0.650100
     22 N19        -52.5860    28.7580    -2.4520 ns         1 KUK      -0.440900
     23 C23        -56.5230    26.7270    -3.3430 cc         1 KUK       0.425800
     24 N24        -56.5680    26.2960    -4.6360 na         1 KUK      -0.220700
     25 N25        -57.6620    25.5170    -4.8380 nc         1 KUK      -0.234800
     26 N26        -58.2580    25.4880    -3.6770 nd         1 KUK      -0.063000
     27 N27        -57.5780    26.2250    -2.7360 nd         1 KUK      -0.404000
     28 O29        -51.1250    26.3810    -1.8580 o          1 KUK      -0.712500
     29 O30        -51.8760    26.6040     0.1490 o          1 KUK      -0.712500
     30 C31        -48.7130    37.4280    -7.2410 c          1 KUK       0.730500
     31 O32        -47.6920    37.3180    -6.5800 o          1 KUK      -0.546100
     32 N33        -49.5210    38.5510    -7.0840 nf         1 KUK      -0.822100
     33 H1         -53.4830    32.7260    -3.0150 ha         1 KUK       0.147000
     34 H2         -53.5890    28.1370    -0.7070 h1         1 KUK       0.066700
     35 H3         -54.4960    26.0040    -1.6460 hc         1 KUK       0.052200
     36 H4         -53.7470    26.3520    -3.1990 hc         1 KUK       0.052200
     37 H5         -55.1940    28.3840    -3.4560 hc         1 KUK       0.076200
     38 H6         -55.8780    28.1170    -1.8610 hc         1 KUK       0.076200
     39 H7         -52.1030    39.6150    -8.1830 hn         1 KUK       0.506500
     40 H8         -51.2360    40.2060    -6.8360 hn         1 KUK       0.506500
     41 H9         -51.7490    36.4700   -10.2600 hn         1 KUK       0.508000
     42 H10        -50.6940    35.1800    -9.9340 hn         1 KUK       0.508000
     43 H11        -48.3260    36.2960    -8.9780 h1         1 KUK       0.088700
     44 H12        -48.7120    34.2430    -7.9140 hn         1 KUK       0.317500
     45 H13        -49.4890    32.8120    -6.7270 hn         1 KUK       0.148000
     46 H14        -49.8420    30.7830    -5.6920 h4         1 KUK       0.010100
     47 H15        -52.3040    34.1990    -4.6200 ha         1 KUK       0.149000
     48 H16        -51.8020    28.5440    -3.0640 hn         1 KUK       0.356500
     49 H17        -55.9010    26.5030    -5.3690 hn         1 KUK       0.383000
     50 N01        -51.2190    39.7140    -7.7140 nv         1 KUK      -1.017200
@<TRIPOS>BOND
     1     1    19 ar  
     2     1    20 ar  
     3     1    33 1   
     4     2    19 1   
     5     2    21 2   
     6     2    22 1   
     7     3     4 1   
     8     3     6 1   
     9     3    22 1   
    10     3    34 1   
    11     4     5 1   
    12     4    35 1   
    13     4    36 1   
    14     5    23 1   
    15     5    37 1   
    16     5    38 1   
    17     6    28 1   
    18     6    29 1   
    19     7     8 1   
    20     7    32 2   
    21     7    50 1   
    22     8     9 2   
    23     9    10 1   
    24     9    11 1   
    25    10    41 1   
    26    10    42 1   
    27    11    12 1   
    28    11    30 1   
    29    11    43 1   
    30    12    13 1   
    31    12    44 1   
    32    13    14 2   
    33    13    15 1   
    34    15    16 1   
    35    15    45 1   
    36    16    17 ar  
    37    16    20 ar  
    38    17    18 ar  
    39    17    46 1   
    40    18    19 ar  
    41    20    47 1   
    42    22    48 1   
    43    23    24 1   
    44    23    27 2   
    45    24    25 1   
    46    24    49 1   
    47    25    26 2   
    48    26    27 1   
    49    30    31 2   
    50    30    32 1   
    51    39    50 1   
    52    40    50 1   
@<TRIPOS>SUBSTRUCTURE
     1 KUK         1 TEMP              0 ****  ****    0 ROOT
