@<TRIPOS>MOLECULE
KUL
   28    29     1     0     0
SMALL
No Charge or Current Charge


@<TRIPOS>ATOM
      1 C10        -26.1570  -100.1390    18.1200 c5         1 KUL      -0.164400
      2 C20        -22.5080  -102.9950    16.9240 ca         1 KUL       0.243000
      3 C22        -21.8760  -104.0270    16.2160 ca         1 KUL      -0.169000
      4 C01        -25.4430  -107.1130    15.3250 c3         1 KUL      -0.336100
      5 C04        -24.0140  -104.6900    15.2670 ca         1 KUL      -0.282500
      6 C05        -24.6510  -103.6520    15.9790 ca         1 KUL       0.026000
      7 C06        -23.9040  -102.7980    16.8190 ca         1 KUL      -0.108000
      8 C08        -24.3580  -101.5040    18.9100 c          1 KUL       0.575500
      9 C09        -25.0100  -100.1380    19.1680 c5         1 KUL      -0.164400
     10 C18        -25.5040  -100.8860    16.9470 c          1 KUL       0.575500
     11 C23        -22.6240  -104.8800    15.3900 ca         1 KUL       0.015000
     12 N07        -24.5740  -101.7410    17.5480 n          1 KUL      -0.226000
     13 O03        -26.2290  -105.1020    13.8380 o          1 KUL      -0.519000
     14 O17        -23.9440  -102.3280    19.7150 o          1 KUL      -0.479500
     15 O19        -25.5960  -100.6700    15.7470 o          1 KUL      -0.479500
     16 O24        -24.0990  -106.3730    13.1990 o          1 KUL      -0.519000
     17 S02        -24.9840  -105.7850    14.2130 sy         1 KUL       1.064500
     18 H1         -26.5430   -99.1590    17.8200 hc         1 KUL       0.089950
     19 H2         -26.9770  -100.7610    18.4990 hc         1 KUL       0.089950
     20 H3         -20.8010  -104.1610    16.3050 ha         1 KUL       0.143000
     21 H4         -26.0230  -106.6840    16.1480 h1         1 KUL       0.103700
     22 H5         -26.0420  -107.8360    14.7630 h1         1 KUL       0.103700
     23 H6         -24.5250  -107.5780    15.6990 h1         1 KUL       0.103700
     24 H7         -25.7280  -103.5130    15.8920 ha         1 KUL       0.152000
     25 H8         -24.2880   -99.3620    18.8910 hc         1 KUL       0.089950
     26 H9         -25.3100  -100.0150    20.2150 hc         1 KUL       0.089950
     27 H10        -22.1190  -105.6800    14.8480 ha         1 KUL       0.139000
     28 F21        -21.7500  -102.1660    17.6780 f          1 KUL      -0.156000
@<TRIPOS>BOND
     1     1     9 1   
     2     1    10 1   
     3     1    18 1   
     4     1    19 1   
     5     2     3 ar  
     6     2     7 ar  
     7     2    28 1   
     8     3    11 ar  
     9     3    20 1   
    10     4    17 1   
    11     4    21 1   
    12     4    22 1   
    13     4    23 1   
    14     5     6 ar  
    15     5    11 ar  
    16     5    17 1   
    17     6     7 ar  
    18     6    24 1   
    19     7    12 1   
    20     8     9 1   
    21     8    12 1   
    22     8    14 2   
    23     9    25 1   
    24     9    26 1   
    25    10    12 1   
    26    10    15 2   
    27    11    27 1   
    28    13    17 2   
    29    16    17 2   
@<TRIPOS>SUBSTRUCTURE
     1 KUL         1 TEMP              0 ****  ****    0 ROOT
