@<TRIPOS>MOLECULE
KUL
   28    29     1     0     0
SMALL
bcc


@<TRIPOS>ATOM
      1 C10        -25.7480   -99.7840    17.9820 c5         1 KUL      -0.164400
      2 C20        -22.5970  -102.9060    16.7220 ca         1 KUL       0.207900
      3 C22        -21.9650  -103.8940    15.9930 ca         1 KUL      -0.187000
      4 C01        -25.1710  -107.2710    15.4860 c3         1 KUL      -0.225300
      5 C04        -24.1200  -104.6900    15.3170 ca         1 KUL      -0.282500
      6 C05        -24.7480  -103.6980    16.0510 ca         1 KUL       0.008000
      7 C06        -23.9790  -102.7890    16.7590 ca         1 KUL      -0.015400
      8 C08        -24.6040  -101.7070    18.8790 c          1 KUL       0.718000
      9 C09        -25.3350  -100.4560    19.2860 c5         1 KUL      -0.164400
     10 C18        -25.2230  -100.6730    16.8870 c          1 KUL       0.718000
     11 C23        -22.7350  -104.7900    15.2740 ca         1 KUL      -0.003000
     12 N07        -24.5820  -101.7490    17.4910 n          1 KUL      -0.452600
     13 O03        -26.4550  -105.3070    14.2900 o          1 KUL      -0.589800
     14 O17        -24.1170  -102.5530    19.5800 o          1 KUL      -0.555000
     15 O19        -25.3140  -100.5290    15.6980 o          1 KUL      -0.555000
     16 O24        -24.3770  -106.2160    13.1990 o          1 KUL      -0.589800
     17 S02        -25.1080  -105.8550    14.4100 sy         1 KUL       1.095300
     18 H1         -25.3280   -98.7850    17.8630 hc         1 KUL       0.089950
     19 H2         -26.8290   -99.6910    17.8750 hc         1 KUL       0.089950
     20 H3         -20.8850  -103.9520    15.9790 ha         1 KUL       0.161000
     21 H4         -25.6350  -106.9830    16.4270 h1         1 KUL       0.103700
     22 H5         -25.7720  -108.0310    14.9880 h1         1 KUL       0.103700
     23 H6         -24.1630  -107.6440    15.6580 h1         1 KUL       0.103700
     24 H7         -25.8270  -103.6210    16.0850 ha         1 KUL       0.170000
     25 H8         -24.6710   -99.8370    19.8910 hc         1 KUL       0.089950
     26 H9         -26.1830  -100.7270    19.9140 hc         1 KUL       0.089950
     27 H10        -22.2490  -105.5610    14.6910 ha         1 KUL       0.157000
     28 F21        -21.8640  -102.0360    17.4090 f          1 KUL      -0.120900
@<TRIPOS>BOND
     1     1     9 1   
     2     1    10 1   
     3     1    18 1   
     4     1    19 1   
     5     2     3 ar  
     6     2     7 ar  
     7     2    28 1   
     8     3    11 ar  
     9     3    20 1   
    10     4    17 1   
    11     4    21 1   
    12     4    22 1   
    13     4    23 1   
    14     5     6 ar  
    15     5    11 ar  
    16     5    17 1   
    17     6     7 ar  
    18     6    24 1   
    19     7    12 1   
    20     8     9 1   
    21     8    12 1   
    22     8    14 2   
    23     9    25 1   
    24     9    26 1   
    25    10    12 1   
    26    10    15 2   
    27    11    27 1   
    28    13    17 2   
    29    16    17 2   
@<TRIPOS>SUBSTRUCTURE
     1 KUL         1 TEMP              0 ****  ****    0 ROOT
