@<TRIPOS>MOLECULE
KUM
   47    50     1     0     0
SMALL
bcc


@<TRIPOS>ATOM
      1 C01         -3.5490    -1.4010     0.3830 ca         1 KUM       0.147100
      2 C03         -2.7000    -3.4730     1.1560 c3         1 KUM       0.120700
      3 C07         -4.6320    -0.7010    -0.1540 ca         1 KUM       0.046100
      4 C09         -6.7420    -1.3180     0.6430 c3         1 KUM       0.126700
      5 C13         -4.5130     0.6650    -0.4390 ca         1 KUM       0.147100
      6 C15         -5.5460     2.6150    -1.2990 c3         1 KUM       0.120700
      7 C19         -3.3120     1.3230    -0.1960 ca         1 KUM      -0.206500
      8 C21         -2.2290     0.6070     0.3030 ca         1 KUM      -0.087600
      9 C22         -2.3390    -0.7470     0.6010 ca         1 KUM      -0.206500
     10 C24         -0.9610     1.3420     0.5490 c          1 KUM       0.628300
     11 C26          2.4690     0.4150     0.0960 cc         1 KUM       0.536300
     12 C28          0.2860     0.6670     0.2510 cc         1 KUM      -0.332200
     13 C29          0.6050    -0.4760    -0.4520 cd         1 KUM       0.377200
     14 C33          4.9490    -0.1700    -0.2420 ca         1 KUM      -0.061800
     15 C34          6.1500     0.4690     0.1280 ca         1 KUM      -0.056200
     16 C35          3.8790     0.6570     0.2470 cc         1 KUM      -0.209000
     17 C36          4.4720     1.7270     0.8760 cd         1 KUM      -0.095100
     18 C40          7.4030    -0.0520    -0.1850 ca         1 KUM      -0.149000
     19 C42          7.4370    -1.2420    -0.8850 ca         1 KUM      -0.105000
     20 C44          6.2540    -1.8960    -1.2650 ca         1 KUM      -0.159000
     21 C46          5.0130    -1.3750    -0.9520 ca         1 KUM      -0.061000
     22 N27          1.5020     1.2160     0.5780 na         1 KUM      -0.263900
     23 N31          1.9410    -0.6240    -0.5410 nd         1 KUM      -0.690000
     24 N38          5.8170     1.6120     0.8030 na         1 KUM      -0.159400
     25 O02         -3.7690    -2.6980     0.6490 os         1 KUM      -0.300400
     26 O08         -5.7920    -1.3490    -0.4170 os         1 KUM      -0.306900
     27 O14         -5.6090     1.2450    -0.9520 os         1 KUM      -0.300400
     28 O25         -0.9660     2.4940     0.9560 o          1 KUM      -0.548100
     29 H1          -1.8530    -3.5020     0.4660 h1         1 KUM       0.044033
     30 H2          -2.3550    -3.1090     2.1270 h1         1 KUM       0.044033
     31 H3          -3.0850    -4.4820     1.2790 h1         1 KUM       0.044033
     32 H4          -7.6150    -1.8710     0.3040 h1         1 KUM       0.035367
     33 H5          -6.3540    -1.7950     1.5460 h1         1 KUM       0.035367
     34 H6          -7.0450    -0.2970     0.8840 h1         1 KUM       0.035367
     35 H7          -5.3550     3.2490    -0.4300 h1         1 KUM       0.044033
     36 H8          -4.7790     2.8080    -2.0530 h1         1 KUM       0.044033
     37 H9          -6.5180     2.8710    -1.7120 h1         1 KUM       0.044033
     38 H10         -3.2000     2.3760    -0.4100 ha         1 KUM       0.151000
     39 H11         -1.5000    -1.2670     1.0400 ha         1 KUM       0.151000
     40 H12         -0.0720    -1.1770    -0.9140 h4         1 KUM       0.044100
     41 H13          4.0250     2.5740     1.3720 h4         1 KUM       0.160000
     42 H14          8.3130     0.4570     0.1060 ha         1 KUM       0.132000
     43 H15          8.3930    -1.6780    -1.1450 ha         1 KUM       0.129000
     44 H16          6.3180    -2.8260    -1.8140 ha         1 KUM       0.132000
     45 H17          4.1060    -1.8840    -1.2460 ha         1 KUM       0.160000
     46 H18          1.6250     2.0710     1.0990 hn         1 KUM       0.314700
     47 H20          6.4680     2.2760     1.1890 hn         1 KUM       0.302700
@<TRIPOS>BOND
     1     1     3 ar  
     2     1     9 ar  
     3     1    25 1   
     4     2    25 1   
     5     2    29 1   
     6     2    30 1   
     7     2    31 1   
     8     3     5 ar  
     9     3    26 1   
    10     4    26 1   
    11     4    32 1   
    12     4    33 1   
    13     4    34 1   
    14     5     7 ar  
    15     5    27 1   
    16     6    27 1   
    17     6    35 1   
    18     6    36 1   
    19     6    37 1   
    20     7     8 ar  
    21     7    38 1   
    22     8     9 ar  
    23     8    10 1   
    24     9    39 1   
    25    10    12 1   
    26    10    28 2   
    27    11    16 1   
    28    11    22 1   
    29    11    23 2   
    30    12    13 2   
    31    12    22 1   
    32    13    23 1   
    33    13    40 1   
    34    14    15 ar  
    35    14    16 1   
    36    14    21 ar  
    37    15    18 ar  
    38    15    24 1   
    39    16    17 2   
    40    17    24 1   
    41    17    41 1   
    42    18    19 ar  
    43    18    42 1   
    44    19    20 ar  
    45    19    43 1   
    46    20    21 ar  
    47    20    44 1   
    48    21    45 1   
    49    22    46 1   
    50    24    47 1   
@<TRIPOS>SUBSTRUCTURE
     1 KUM         1 TEMP              0 ****  ****    0 ROOT
