@<TRIPOS>MOLECULE
KUM
   47    50     1     0     0
SMALL
No Charge or Current Charge


@<TRIPOS>ATOM
      1 C01         -3.4300    -1.4440     0.6650 ca         1 KUM       0.147100
      2 C03         -2.3040    -3.5210     1.4240 c3         1 KUM       0.143900
      3 C07         -4.6260    -0.8310     0.2200 ca         1 KUM       0.046100
      4 C09         -7.0520    -1.2410    -0.3110 c3         1 KUM       0.149900
      5 C13         -4.6170     0.5640    -0.0900 ca         1 KUM       0.147100
      6 C15         -5.8310     2.6010    -0.8390 c3         1 KUM       0.143900
      7 C19         -3.4130     1.2950     0.0420 ca         1 KUM      -0.188500
      8 C21         -2.2160     0.6790     0.4580 ca         1 KUM      -0.087600
      9 C22         -2.2430    -0.6910     0.7900 ca         1 KUM      -0.188500
     10 C24         -0.9540     1.5160     0.5990 c          1 KUM       0.628300
     11 C26          2.5240     0.4340     0.0350 cc         1 KUM       0.536300
     12 C28          0.3550     0.8790     0.3150 cc         1 KUM      -0.317600
     13 C29          0.5310    -0.2330    -0.4690 cd         1 KUM       0.311900
     14 C33          5.0180    -0.2160    -0.3270 ca         1 KUM      -0.061800
     15 C34          6.1910     0.3570     0.0830 ca         1 KUM      -0.056200
     16 C35          3.9490     0.6010     0.1830 cc         1 KUM      -0.209000
     17 C36          4.5460     1.6460     0.8900 cd         1 KUM      -0.145100
     18 C40          7.4340    -0.2010    -0.2510 ca         1 KUM      -0.131000
     19 C42          7.4500    -1.3780    -1.0280 ca         1 KUM      -0.087000
     20 C44          6.2360    -1.9700    -1.4510 ca         1 KUM      -0.141000
     21 C46          4.9990    -1.3880    -1.1010 ca         1 KUM      -0.043000
     22 N27          1.6400     1.3250     0.5880 na         1 KUM      -0.263500
     23 N31          1.8740    -0.5160    -0.6160 nd         1 KUM      -0.690000
     24 N38          5.9540     1.4980     0.8300 na         1 KUM      -0.209700
     25 O02         -3.4630    -2.7940     0.9790 os         1 KUM      -0.323600
     26 O08         -5.7470    -1.6590     0.1270 os         1 KUM      -0.330100
     27 O14         -5.7730     1.2000    -0.5140 os         1 KUM      -0.323600
     28 O25         -1.0080     2.6670     1.0170 o          1 KUM      -0.548100
     29 H1          -1.5090    -3.4890     0.6680 h1         1 KUM       0.044033
     30 H2          -1.9180    -3.1040     2.3620 h1         1 KUM       0.044033
     31 H3          -2.5610    -4.5730     1.6010 h1         1 KUM       0.044033
     32 H4          -7.7430    -2.0930    -0.2980 h1         1 KUM       0.035367
     33 H5          -7.4610    -0.4700     0.3530 h1         1 KUM       0.035367
     34 H6          -7.0160    -0.8550    -1.3380 h1         1 KUM       0.035367
     35 H7          -5.5640     3.2160     0.0300 h1         1 KUM       0.044033
     36 H8          -5.1500     2.8390    -1.6660 h1         1 KUM       0.044033
     37 H9          -6.8470     2.8760    -1.1490 h1         1 KUM       0.044033
     38 H10         -3.3820     2.3560    -0.1870 ha         1 KUM       0.133000
     39 H11         -1.3380    -1.1560     1.1690 ha         1 KUM       0.133000
     40 H12         -0.2240    -0.8440    -0.9510 h4         1 KUM       0.044100
     41 H13          4.0930     2.4760     1.4270 h4         1 KUM       0.210000
     42 H14          8.3620     0.2610     0.0780 ha         1 KUM       0.114000
     43 H15          8.3990    -1.8330    -1.3030 ha         1 KUM       0.111000
     44 H16          6.2560    -2.8780    -2.0500 ha         1 KUM       0.114000
     45 H17          4.0640    -1.8390    -1.4230 ha         1 KUM       0.142000
     46 H18          1.9010     2.1530     1.1060 hn         1 KUM       0.365000
     47 H20          6.6510     2.1060     1.2500 hn         1 KUM       0.353000
@<TRIPOS>BOND
     1     1     3 ar  
     2     1     9 ar  
     3     1    25 1   
     4     2    25 1   
     5     2    29 1   
     6     2    30 1   
     7     2    31 1   
     8     3     5 ar  
     9     3    26 1   
    10     4    26 1   
    11     4    32 1   
    12     4    33 1   
    13     4    34 1   
    14     5     7 ar  
    15     5    27 1   
    16     6    27 1   
    17     6    35 1   
    18     6    36 1   
    19     6    37 1   
    20     7     8 ar  
    21     7    38 1   
    22     8     9 ar  
    23     8    10 1   
    24     9    39 1   
    25    10    12 1   
    26    10    28 2   
    27    11    16 1   
    28    11    22 1   
    29    11    23 2   
    30    12    13 2   
    31    12    22 1   
    32    13    23 1   
    33    13    40 1   
    34    14    15 ar  
    35    14    16 1   
    36    14    21 ar  
    37    15    18 ar  
    38    15    24 1   
    39    16    17 2   
    40    17    24 1   
    41    17    41 1   
    42    18    19 ar  
    43    18    42 1   
    44    19    20 ar  
    45    19    43 1   
    46    20    21 ar  
    47    20    44 1   
    48    21    45 1   
    49    22    46 1   
    50    24    47 1   
@<TRIPOS>SUBSTRUCTURE
     1 KUM         1 TEMP              0 ****  ****    0 ROOT
