@<TRIPOS>MOLECULE
KUN
   46    47     1     0     0
SMALL
abcg2


@<TRIPOS>ATOM
      1 C13         49.9640   -13.0980     3.8860 ca         1 KUN       0.185000
      2 C15         48.6350   -12.9870     3.4980 ca         1 KUN       0.270500
      3 C17         48.3870   -11.1910     4.9180 ca         1 KUN       0.276900
      4 C21         45.8580   -14.2570     1.3010 c3         1 KUN      -0.019100
      5 C22         45.4800   -15.6450     1.7210 c2         1 KUN      -0.213200
      6 C24         45.1610   -18.1150     1.3710 c          1 KUN       0.709200
      7 C02         55.4620    -9.3460     7.9240 ce         1 KUN       0.959200
      8 N03         54.7950   -10.0860     8.8490 ne         1 KUN      -0.879000
      9 C04         53.5260    -9.8410     8.9970 c2         1 KUN       0.761200
     10 N05         52.8350   -10.5630     9.8630 nv         1 KUN      -1.020200
     11 C06         52.8310    -8.7150     8.2840 c6         1 KUN      -0.292000
     12 C07         51.4010    -9.0070     7.8590 c3         1 KUN      -0.147400
     13 C08         51.3550   -10.1150     6.8330 c          1 KUN       0.605100
     14 O09         52.3320   -10.7800     6.5530 o          1 KUN      -0.574100
     15 C11         49.7220   -11.2390     5.3470 ca         1 KUN      -0.079000
     16 C12         50.5270   -12.2320     4.8060 ca         1 KUN      -0.173000
     17 F14         50.7560   -14.0460     3.3910 f          1 KUN      -0.143000
     18 N16         47.8890   -12.0250     4.0400 nb         1 KUN      -0.605000
     19 C18         47.9810   -13.8810     2.4820 c          1 KUN       0.485600
     20 O19         48.6010   -14.7630     1.9020 o          1 KUN      -0.620100
     21 N20         46.6920   -13.6050     2.2810 ns         1 KUN      -0.419900
     22 C23         45.6080   -16.7290     0.9630 ce         1 KUN      -0.268200
     23 O25         44.6750   -18.2580     2.5120 o          1 KUN      -0.760500
     24 O26         45.3150   -19.0050     0.5070 o          1 KUN      -0.760500
     25 C27         44.5710   -13.3960     1.0860 c          1 KUN       0.723000
     26 O28         43.7850   -13.8290     0.2310 o          1 KUN      -0.731500
     27 O29         44.4590   -12.3710     1.7860 o          1 KUN      -0.731500
     28 C30         53.6600    -8.1970     7.1050 c          1 KUN       0.746500
     29 O31         53.1070    -7.5000     6.2670 o          1 KUN      -0.560100
     30 N32         54.9740    -8.4730     7.0580 nf         1 KUN      -0.820100
     31 H1          47.7170   -10.4350     5.3160 h4         1 KUN       0.010100
     32 H2          46.3830   -14.3060     0.3400 h1         1 KUN       0.045700
     33 H3          45.0460   -15.7370     2.7140 ha         1 KUN       0.168000
     34 H4          57.3550    -9.0840     7.2310 hn         1 KUN       0.503500
     35 H5          57.1940   -10.2410     8.5090 hn         1 KUN       0.503500
     36 H6          53.2980   -11.2850    10.3920 hn         1 KUN       0.502500
     37 H7          51.8690   -10.3850    10.0740 hn         1 KUN       0.502500
     38 H8          52.7900    -7.8910     9.0100 hc         1 KUN       0.084700
     39 H9          50.9600    -8.1000     7.4440 hc         1 KUN       0.068200
     40 H10         50.7600    -9.2710     8.7040 hc         1 KUN       0.068200
     41 H11         49.4010    -9.6590     6.5810 hn         1 KUN       0.148000
     42 H12         51.5650   -12.3490     5.0760 ha         1 KUN       0.153000
     43 H13         46.2740   -12.8060     2.7420 hn         1 KUN       0.352500
     44 H14         46.0530   -16.6290    -0.0250 ha         1 KUN       0.138000
     45 N10         50.1250   -10.2960     6.2770 ns         1 KUN      -0.131000
     46 N01         56.7730    -9.5700     7.8910 nv         1 KUN      -1.022200
@<TRIPOS>BOND
     1     1     2 ar  
     2     1    16 ar  
     3     1    17 1   
     4     2    18 ar  
     5     2    19 1   
     6     3    15 ar  
     7     3    18 ar  
     8     3    31 1   
     9     4     5 1   
    10     4    21 1   
    11     4    25 1   
    12     4    32 1   
    13     5    22 2   
    14     5    33 1   
    15     6    22 1   
    16     6    23 1   
    17     6    24 1   
    18     7     8 1   
    19     7    30 2   
    20     7    46 1   
    21     8     9 2   
    22     9    10 1   
    23     9    11 1   
    24    10    36 1   
    25    10    37 1   
    26    11    12 1   
    27    11    28 1   
    28    11    38 1   
    29    12    13 1   
    30    12    39 1   
    31    12    40 1   
    32    13    14 2   
    33    13    45 1   
    34    15    16 ar  
    35    15    45 1   
    36    16    42 1   
    37    19    20 2   
    38    19    21 1   
    39    21    43 1   
    40    22    44 1   
    41    25    26 1   
    42    25    27 1   
    43    28    29 2   
    44    28    30 1   
    45    34    46 1   
    46    35    46 1   
    47    41    45 1   
@<TRIPOS>SUBSTRUCTURE
     1 KUN         1 TEMP              0 ****  ****    0 ROOT
