@<TRIPOS>MOLECULE
KUN
   46    47     1     0     0
SMALL
No Charge or Current Charge


@<TRIPOS>ATOM
      1 C13         49.9060   -13.9190     4.2900 ca         1 KUN       0.185000
      2 C15         48.7540   -13.4310     3.6150 ca         1 KUN       0.270500
      3 C17         48.6860   -11.5620     5.0250 ca         1 KUN       0.276900
      4 C21         46.2030   -14.1230     0.7670 c3         1 KUN      -0.019100
      5 C22         45.0300   -14.9200     1.3160 c2         1 KUN      -0.213200
      6 C24         43.9380   -16.9750     2.3270 c          1 KUN       0.709200
      7 C02         54.8080    -8.0360     7.2540 ce         1 KUN       0.959200
      8 N03         55.0860    -9.2170     7.8470 ne         1 KUN      -0.879000
      9 C04         54.0650    -9.7790     8.3540 c2         1 KUN       0.761200
     10 N05         54.3590   -10.8980     9.0210 nv         1 KUN      -1.020200
     11 C06         52.7090    -9.1590     8.5300 c6         1 KUN      -0.292000
     12 C07         51.4800   -10.1400     8.7250 c3         1 KUN      -0.147400
     13 C08         51.3660   -11.2670     7.6800 c          1 KUN       0.605100
     14 O09         52.1750   -12.1870     7.6630 o          1 KUN      -0.574100
     15 C11         49.8250   -11.9780     5.7450 ca         1 KUN      -0.079000
     16 C12         50.4450   -13.1870     5.3630 ca         1 KUN      -0.173000
     17 F14         50.5100   -15.0770     3.9360 f          1 KUN      -0.143000
     18 N16         48.1580   -12.2560     3.9920 nb         1 KUN      -0.605000
     19 C18         48.1340   -14.1980     2.4380 c          1 KUN       0.485600
     20 O19         48.5760   -15.2510     1.9860 o          1 KUN      -0.620100
     21 N20         47.0070   -13.6040     1.8940 ns         1 KUN      -0.419900
     22 C23         45.0910   -16.1910     1.7880 ce         1 KUN      -0.268200
     23 O25         42.8320   -16.4590     2.3580 o          1 KUN      -0.760500
     24 O26         44.1590   -18.1110     2.7140 o          1 KUN      -0.760500
     25 C27         45.7690   -12.9480    -0.1740 c          1 KUN       0.723000
     26 O28         45.9320   -13.0780    -1.3800 o          1 KUN      -0.731500
     27 O29         45.2860   -11.9410     0.3320 o          1 KUN      -0.731500
     28 C30         52.5950    -8.2540     7.3240 c          1 KUN       0.746500
     29 O31         51.7750    -8.3960     6.4340 o          1 KUN      -0.560100
     30 N32         53.6980    -7.4430     7.1410 nf         1 KUN      -0.820100
     31 H1          48.1750   -10.6350     5.2860 h4         1 KUN       0.010100
     32 H2          46.8350   -14.7900     0.1680 h1         1 KUN       0.045700
     33 H3          44.0800   -14.3810     1.3090 ha         1 KUN       0.168000
     34 H4          55.8300    -6.4830     6.7870 hn         1 KUN       0.503500
     35 H5          56.6950    -7.8230     7.4040 hn         1 KUN       0.503500
     36 H6          55.3250   -11.1310     8.8360 hn         1 KUN       0.502500
     37 H7          53.7190   -11.6490     8.7780 hn         1 KUN       0.502500
     38 H8          52.8200    -8.5120     9.4090 hc         1 KUN       0.084700
     39 H9          50.5540    -9.5510     8.7270 hc         1 KUN       0.068200
     40 H10         51.5720   -10.6200     9.7070 hc         1 KUN       0.068200
     41 H11         49.7180   -10.3300     6.9690 hn         1 KUN       0.148000
     42 H12         51.3230   -13.5750     5.8690 ha         1 KUN       0.153000
     43 H13         46.7280   -12.7240     2.3200 hn         1 KUN       0.352500
     44 H14         46.0430   -16.7180     1.7920 ha         1 KUN       0.138000
     45 N10         50.2830   -11.1570     6.8160 ns         1 KUN      -0.131000
     46 N01         55.8520    -7.2730     7.4120 nv         1 KUN      -1.022200
@<TRIPOS>BOND
     1     1     2 ar  
     2     1    16 ar  
     3     1    17 1   
     4     2    18 ar  
     5     2    19 1   
     6     3    15 ar  
     7     3    18 ar  
     8     3    31 1   
     9     4     5 1   
    10     4    21 1   
    11     4    25 1   
    12     4    32 1   
    13     5    22 2   
    14     5    33 1   
    15     6    22 1   
    16     6    23 1   
    17     6    24 1   
    18     7     8 1   
    19     7    30 2   
    20     7    46 1   
    21     8     9 2   
    22     9    10 1   
    23     9    11 1   
    24    10    36 1   
    25    10    37 1   
    26    11    12 1   
    27    11    28 1   
    28    11    38 1   
    29    12    13 1   
    30    12    39 1   
    31    12    40 1   
    32    13    14 2   
    33    13    45 1   
    34    15    16 ar  
    35    15    45 1   
    36    16    42 1   
    37    19    20 2   
    38    19    21 1   
    39    21    43 1   
    40    22    44 1   
    41    25    26 1   
    42    25    27 1   
    43    28    29 2   
    44    28    30 1   
    45    34    46 1   
    46    35    46 1   
    47    41    45 1   
@<TRIPOS>SUBSTRUCTURE
     1 KUN         1 TEMP              0 ****  ****    0 ROOT
