@<TRIPOS>MOLECULE
KUO
   83    86     1     0     0
SMALL
No Charge or Current Charge


@<TRIPOS>ATOM
      1 N1          14.5820    -2.6670    58.3620 n          1 KUO      -0.412800
      2 C2          19.6440    -6.8990    55.4180 c3         1 KUO      -0.083100
      3 C3          17.1760    -7.1900    55.8530 c3         1 KUO      -0.083100
      4 C6          14.9180    -3.2160    57.0060 c3         1 KUO       0.020000
      5 C7          13.7500    -3.4390    59.2170 c          1 KUO       0.662100
      6 C9          11.8500    -2.6240    62.4310 c6         1 KUO      -0.084400
      7 C10         13.0210    -2.3110    63.3980 c6         1 KUO      -0.037700
      8 C20         16.9300    -2.0090    54.4620 ca         1 KUO      -0.064300
      9 C21         17.8020    -1.3800    55.5570 c3         1 KUO       0.276900
     10 C25         18.7840    -0.3200    55.0420 ca         1 KUO      -0.145300
     11 C26         18.5050     1.0600    55.1620 ca         1 KUO      -0.054000
     12 C27         19.4130     2.0140    54.6760 ca         1 KUO      -0.151000
     13 C28         20.6060     1.6030    54.0640 ca         1 KUO      -0.071000
     14 C29         20.8930     0.2350    53.9350 ca         1 KUO      -0.202000
     15 C30         19.9840    -0.7320    54.4210 ca         1 KUO       0.146100
     16 C31         21.4090    -2.6080    53.6640 c3         1 KUO       0.149900
     17 O2          10.3890    -1.8040    65.3150 o          1 KUO      -0.739500
     18 O1          11.9890    -2.7290    66.4190 o          1 KUO      -0.739500
     19 C11         12.6080    -1.3670    64.5740 c3         1 KUO      -0.203400
     20 C8          12.2980    -3.5210    61.2500 c6         1 KUO       0.098500
     21 C13         14.1970    -1.7140    62.5860 c6         1 KUO      -0.084400
     22 C14         14.6060    -2.6520    61.4300 c6         1 KUO       0.098500
     23 N2          13.4770    -2.9790    60.5210 n          1 KUO      -0.413800
     24 O3          13.2420    -4.4800    58.8190 o          1 KUO      -0.640100
     25 C5          16.2170    -4.0590    56.9410 c          1 KUO       0.595100
     26 O           16.6570    -4.6130    57.9450 o          1 KUO      -0.575100
     27 N           16.8680    -4.1760    55.6830 n          1 KUO      -0.258400
     28 C4          18.2010    -4.8440    55.6260 c3         1 KUO       0.107000
     29 C1          18.2340    -6.3220    55.1230 c3         1 KUO      -0.059000
     30 C           17.9940    -6.3900    53.5910 c3         1 KUO      -0.083100
     31 C15         16.5010    -3.3600    54.5590 ca         1 KUO      -0.025000
     32 C16         15.5250    -3.8430    53.6670 ca         1 KUO      -0.107000
     33 C17         15.0720    -3.0460    52.6040 ca         1 KUO      -0.099000
     34 C18         15.5530    -1.7390    52.4600 ca         1 KUO       0.112000
     35 Cl          14.9740    -0.7310    51.1400 cl         1 KUO      -0.210000
     36 C19         16.4600    -1.2150    53.3940 ca         1 KUO      -0.077000
     37 C24         14.6870    -1.1780    58.5050 c3         1 KUO       0.118000
     38 C23         16.0880    -0.5490    58.7880 c3         1 KUO      -0.087400
     39 C22         17.2650    -0.9990    57.8980 c3         1 KUO       0.157600
     40 O4          16.8960    -0.8110    56.5240 os         1 KUO      -0.464000
     41 O5          20.2320    -2.0870    54.3060 os         1 KUO      -0.344100
     42 H1          19.8570    -6.8870    56.4940 hc         1 KUO       0.033922
     43 H2          19.7270    -7.9360    55.0710 hc         1 KUO       0.033922
     44 H3          20.4220    -6.3110    54.9130 hc         1 KUO       0.033922
     45 H4          17.3310    -7.1670    56.9390 hc         1 KUO       0.033922
     46 H5          16.1590    -6.8360    55.6460 hc         1 KUO       0.033922
     47 H6          17.2360    -8.2360    55.5280 hc         1 KUO       0.033922
     48 H7          14.9970    -2.3850    56.3000 h1         1 KUO       0.077700
     49 H8          14.1050    -3.8470    56.6290 h1         1 KUO       0.077700
     50 H9          11.4370    -1.6870    62.0330 hc         1 KUO       0.044450
     51 H10         11.0320    -3.1240    62.9660 hc         1 KUO       0.044450
     52 H11         13.3590    -3.2520    63.8550 hc         1 KUO       0.060700
     53 H12         18.4000    -2.1710    56.0270 h1         1 KUO       0.066700
     54 H13         17.5820     1.4010    55.6270 ha         1 KUO       0.134000
     55 H14         19.1900     3.0740    54.7720 ha         1 KUO       0.116000
     56 H15         21.3080     2.3450    53.6870 ha         1 KUO       0.109000
     57 H16         21.8220    -0.0550    53.4550 ha         1 KUO       0.114000
     58 H17         21.3940    -3.7050    53.6800 h1         1 KUO       0.039700
     59 H18         21.4580    -2.2840    52.6170 h1         1 KUO       0.039700
     60 H19         22.3170    -2.2720    54.1820 h1         1 KUO       0.039700
     61 H21         13.5310    -1.1790    65.1380 hc         1 KUO       0.017700
     62 H22         12.1900    -0.4570    64.1250 hc         1 KUO       0.017700
     63 H23         11.4560    -3.6340    60.5530 h1         1 KUO       0.039200
     64 H24         12.5480    -4.5220    61.6300 h1         1 KUO       0.039200
     65 H25         15.0630    -1.5450    63.2400 hc         1 KUO       0.044450
     66 H26         13.9160    -0.7340    62.1780 hc         1 KUO       0.044450
     67 H27         14.9770    -3.5940    61.8590 h1         1 KUO       0.039200
     68 H28         15.4440    -2.2260    60.8760 h1         1 KUO       0.039200
     69 H29         18.6650    -4.7990    56.6200 h1         1 KUO       0.058200
     70 H30         18.8520    -4.2490    54.9730 h1         1 KUO       0.058200
     71 H31         16.9720    -6.1010    53.3320 hc         1 KUO       0.033922
     72 H32         18.6830    -5.7270    53.0540 hc         1 KUO       0.033922
     73 H33         18.1470    -7.4100    53.2170 hc         1 KUO       0.033922
     74 H34         15.1200    -4.8450    53.7920 ha         1 KUO       0.132000
     75 H35         14.3390    -3.4360    51.9020 ha         1 KUO       0.129000
     76 H36         16.7700    -0.1790    53.2970 ha         1 KUO       0.138000
     77 H37         14.3120    -0.7320    57.5740 h1         1 KUO       0.053700
     78 H38         13.9970    -0.8360    59.2860 h1         1 KUO       0.053700
     79 H39         16.3760    -0.7170    59.8290 hc         1 KUO       0.055200
     80 H40         15.9890     0.5390    58.6920 hc         1 KUO       0.055200
     81 H41         17.4910    -2.0500    58.1090 h1         1 KUO       0.031700
     82 H42         18.1580    -0.4080    58.1410 h1         1 KUO       0.031700
     83 C12         11.5760    -2.0130    65.5190 c          1 KUO       0.717000
@<TRIPOS>BOND
     1     1     4 1   
     2     1     5 1   
     3     1    37 1   
     4     2    29 1   
     5     2    42 1   
     6     2    43 1   
     7     2    44 1   
     8     3    29 1   
     9     3    45 1   
    10     3    46 1   
    11     3    47 1   
    12     4    25 1   
    13     4    48 1   
    14     4    49 1   
    15     5    23 1   
    16     5    24 2   
    17     6     7 1   
    18     6    20 1   
    19     6    50 1   
    20     6    51 1   
    21     7    19 1   
    22     7    21 1   
    23     7    52 1   
    24     8     9 1   
    25     8    31 ar  
    26     8    36 ar  
    27     9    10 1   
    28     9    40 1   
    29     9    53 1   
    30    10    11 ar  
    31    10    15 ar  
    32    11    12 ar  
    33    11    54 1   
    34    12    13 ar  
    35    12    55 1   
    36    13    14 ar  
    37    13    56 1   
    38    14    15 ar  
    39    14    57 1   
    40    15    41 1   
    41    16    41 1   
    42    16    58 1   
    43    16    59 1   
    44    16    60 1   
    45    17    83 1   
    46    18    83 1   
    47    19    61 1   
    48    19    62 1   
    49    19    83 1   
    50    20    23 1   
    51    20    63 1   
    52    20    64 1   
    53    21    22 1   
    54    21    65 1   
    55    21    66 1   
    56    22    23 1   
    57    22    67 1   
    58    22    68 1   
    59    25    26 2   
    60    25    27 1   
    61    27    28 1   
    62    27    31 1   
    63    28    29 1   
    64    28    69 1   
    65    28    70 1   
    66    29    30 1   
    67    30    71 1   
    68    30    72 1   
    69    30    73 1   
    70    31    32 ar  
    71    32    33 ar  
    72    32    74 1   
    73    33    34 ar  
    74    33    75 1   
    75    34    35 1   
    76    34    36 ar  
    77    36    76 1   
    78    37    38 1   
    79    37    77 1   
    80    37    78 1   
    81    38    39 1   
    82    38    79 1   
    83    38    80 1   
    84    39    40 1   
    85    39    81 1   
    86    39    82 1   
@<TRIPOS>SUBSTRUCTURE
     1 KUO         1 TEMP              0 ****  ****    0 ROOT
