@<TRIPOS>MOLECULE
KUO
   83    86     1     0     0
SMALL
abcg2


@<TRIPOS>ATOM
      1 N1          14.5020    -2.7960    58.3350 n          1 KUO      -0.412800
      2 C2          19.5590    -6.7780    55.5910 c3         1 KUO      -0.083100
      3 C3          17.0910    -7.1310    55.7280 c3         1 KUO      -0.083100
      4 C6          14.8020    -3.3040    57.0160 c3         1 KUO       0.020000
      5 C7          13.7060    -3.5970    59.1290 c          1 KUO       0.662100
      6 C9          12.0810    -2.6990    62.2620 c6         1 KUO      -0.084400
      7 C10         13.2410    -2.2340    63.1410 c6         1 KUO      -0.037700
      8 C20         16.9830    -2.0630    54.5950 ca         1 KUO      -0.064300
      9 C21         17.7600    -1.4150    55.7260 c3         1 KUO       0.276900
     10 C25         18.7100    -0.3370    55.2560 ca         1 KUO      -0.145300
     11 C26         18.5070     1.0020    55.5420 ca         1 KUO      -0.054000
     12 C27         19.3980     1.9750    55.0980 ca         1 KUO      -0.151000
     13 C28         20.5010     1.5980    54.3530 ca         1 KUO      -0.071000
     14 C29         20.7240     0.2590    54.0470 ca         1 KUO      -0.202000
     15 C30         19.8320    -0.7070    54.4980 ca         1 KUO       0.146100
     16 C31         21.0230    -2.4790    53.4450 c3         1 KUO       0.149900
     17 O2          11.2160    -0.5540    65.7410 o          1 KUO      -0.739500
     18 O1          11.7240    -2.7120    65.5140 o          1 KUO      -0.739500
     19 C11         12.8280    -1.1270    64.1000 c3         1 KUO      -0.203400
     20 C8          12.5070    -3.7460    61.2400 c6         1 KUO       0.098500
     21 C13         14.4040    -1.7920    62.2520 c6         1 KUO      -0.084400
     22 C14         14.7600    -2.8740    61.2480 c6         1 KUO       0.098500
     23 N2          13.6010    -3.2240    60.4410 n          1 KUO      -0.413800
     24 O3          13.1000    -4.5590    58.6740 o          1 KUO      -0.640100
     25 C5          16.0820    -4.1280    57.0250 c          1 KUO       0.595100
     26 O           16.4050    -4.7520    58.0200 o          1 KUO      -0.575100
     27 N           16.8190    -4.1410    55.8800 n          1 KUO      -0.258400
     28 C4          18.1160    -4.8160    55.8590 c3         1 KUO       0.107000
     29 C1          18.1900    -6.2090    55.2060 c3         1 KUO      -0.059000
     30 C           18.1210    -6.1270    53.6790 c3         1 KUO      -0.083100
     31 C15         16.4600    -3.3500    54.7520 ca         1 KUO      -0.025000
     32 C16         15.5860    -3.8650    53.8050 ca         1 KUO      -0.107000
     33 C17         15.2500    -3.1360    52.6750 ca         1 KUO      -0.099000
     34 C18         15.8060    -1.8800    52.5080 ca         1 KUO       0.112000
     35 CL          15.4260    -0.9600    51.0920 cl         1 KUO      -0.210000
     36 C19         16.6540    -1.3370    53.4600 ca         1 KUO      -0.077000
     37 C24         14.5330    -1.3410    58.4900 c3         1 KUO       0.118000
     38 C23         15.8720    -0.6650    58.8050 c3         1 KUO      -0.087400
     39 C22         17.0720    -1.0790    57.9830 c3         1 KUO       0.157600
     40 O4          16.7830    -0.9170    56.6090 os         1 KUO      -0.464000
     41 O5          19.9540    -2.0250    54.2490 os         1 KUO      -0.344100
     42 H1          19.6550    -6.8880    56.6740 hc         1 KUO       0.033922
     43 H2          19.7100    -7.7620    55.1430 hc         1 KUO       0.033922
     44 H3          20.3690    -6.1310    55.2480 hc         1 KUO       0.033922
     45 H4          17.1470    -7.2470    56.8110 hc         1 KUO       0.033922
     46 H5          16.0970    -6.7550    55.4800 hc         1 KUO       0.033922
     47 H6          17.1860    -8.1230    55.2800 hc         1 KUO       0.033922
     48 H7          14.8570    -2.4680    56.3250 h1         1 KUO       0.077700
     49 H8          13.9980    -3.9460    56.6480 h1         1 KUO       0.077700
     50 H9          11.6650    -1.8370    61.7270 hc         1 KUO       0.044450
     51 H10         11.2840    -3.1110    62.8810 hc         1 KUO       0.044450
     52 H11         13.5840    -3.0940    63.7280 hc         1 KUO       0.060700
     53 H12         18.3550    -2.1860    56.2320 h1         1 KUO       0.066700
     54 H13         17.6400     1.2950    56.1200 ha         1 KUO       0.134000
     55 H14         19.2240     3.0170    55.3340 ha         1 KUO       0.116000
     56 H15         21.2010     2.3430    53.9990 ha         1 KUO       0.109000
     57 H16         21.5920    -0.0100    53.4610 ha         1 KUO       0.114000
     58 H17         20.9050    -3.5570    53.3600 h1         1 KUO       0.039700
     59 H18         20.9940    -2.0410    52.4440 h1         1 KUO       0.039700
     60 H19         21.9940    -2.2650    53.8970 h1         1 KUO       0.039700
     61 H21         13.7260    -0.7410    64.6000 hc         1 KUO       0.017700
     62 H22         12.4320    -0.2800    63.5280 hc         1 KUO       0.017700
     63 H23         11.6710    -3.9990    60.5910 h1         1 KUO       0.039200
     64 H24         12.8110    -4.6670    61.7550 h1         1 KUO       0.039200
     65 H25         15.2810    -1.5640    62.8640 hc         1 KUO       0.044450
     66 H26         14.1380    -0.8720    61.7190 hc         1 KUO       0.044450
     67 H27         15.0890    -3.7710    61.7930 h1         1 KUO       0.039200
     68 H28         15.5910    -2.5840    60.6120 h1         1 KUO       0.039200
     69 H29         18.4510    -4.8980    56.8930 h1         1 KUO       0.058200
     70 H30         18.8260    -4.1600    55.3500 h1         1 KUO       0.058200
     71 H31         17.1400    -5.8260    53.3170 hc         1 KUO       0.033922
     72 H32         18.8530    -5.4170    53.2860 hc         1 KUO       0.033922
     73 H33         18.3400    -7.1030    53.2410 hc         1 KUO       0.033922
     74 H34         15.1650    -4.8510    53.9530 ha         1 KUO       0.132000
     75 H35         14.5730    -3.5480    51.9390 ha         1 KUO       0.129000
     76 H36         17.0520    -0.3400    53.3180 ha         1 KUO       0.138000
     77 H37         14.1350    -0.9050    57.5700 h1         1 KUO       0.053700
     78 H38         13.8300    -1.0670    59.2770 h1         1 KUO       0.053700
     79 H39         16.1470    -0.8090    59.8520 hc         1 KUO       0.055200
     80 H40         15.7070     0.4100    58.6910 hc         1 KUO       0.055200
     81 H41         17.3390    -2.1210    58.1980 h1         1 KUO       0.031700
     82 H42         17.9360    -0.4700    58.2770 h1         1 KUO       0.031700
     83 C12         11.8240    -1.5060    65.2080 c          1 KUO       0.717000
@<TRIPOS>BOND
     1     1     4 1   
     2     1     5 1   
     3     1    37 1   
     4     2    29 1   
     5     2    42 1   
     6     2    43 1   
     7     2    44 1   
     8     3    29 1   
     9     3    45 1   
    10     3    46 1   
    11     3    47 1   
    12     4    25 1   
    13     4    48 1   
    14     4    49 1   
    15     5    23 1   
    16     5    24 2   
    17     6     7 1   
    18     6    20 1   
    19     6    50 1   
    20     6    51 1   
    21     7    19 1   
    22     7    21 1   
    23     7    52 1   
    24     8     9 1   
    25     8    31 ar  
    26     8    36 ar  
    27     9    10 1   
    28     9    40 1   
    29     9    53 1   
    30    10    11 ar  
    31    10    15 ar  
    32    11    12 ar  
    33    11    54 1   
    34    12    13 ar  
    35    12    55 1   
    36    13    14 ar  
    37    13    56 1   
    38    14    15 ar  
    39    14    57 1   
    40    15    41 1   
    41    16    41 1   
    42    16    58 1   
    43    16    59 1   
    44    16    60 1   
    45    17    83 1   
    46    18    83 1   
    47    19    61 1   
    48    19    62 1   
    49    19    83 1   
    50    20    23 1   
    51    20    63 1   
    52    20    64 1   
    53    21    22 1   
    54    21    65 1   
    55    21    66 1   
    56    22    23 1   
    57    22    67 1   
    58    22    68 1   
    59    25    26 2   
    60    25    27 1   
    61    27    28 1   
    62    27    31 1   
    63    28    29 1   
    64    28    69 1   
    65    28    70 1   
    66    29    30 1   
    67    30    71 1   
    68    30    72 1   
    69    30    73 1   
    70    31    32 ar  
    71    32    33 ar  
    72    32    74 1   
    73    33    34 ar  
    74    33    75 1   
    75    34    35 1   
    76    34    36 ar  
    77    36    76 1   
    78    37    38 1   
    79    37    77 1   
    80    37    78 1   
    81    38    39 1   
    82    38    79 1   
    83    38    80 1   
    84    39    40 1   
    85    39    81 1   
    86    39    82 1   
@<TRIPOS>SUBSTRUCTURE
     1 KUO         1 TEMP              0 ****  ****    0 ROOT
