@<TRIPOS>MOLECULE
KUP
   35    36     1     0     0
SMALL
No Charge or Current Charge


@<TRIPOS>ATOM
      1 N12          5.2350     2.0020    -0.3080 nv         1 KUP      -1.052900
      2 C17         -2.5860    -0.4790     0.6120 ca         1 KUP       0.112100
      3 C01         -4.4400     1.5990    -1.9040 c3         1 KUP       0.144900
      4 O02         -4.0890     0.8400    -0.7340 os         1 KUP      -0.322100
      5 C03         -2.8450     0.2510    -0.5730 ca         1 KUP       0.109100
      6 C04         -1.8370     0.3610    -1.5580 ca         1 KUP      -0.169000
      7 C05         -0.5870    -0.2490    -1.3620 ca         1 KUP      -0.100000
      8 C06         -0.3220    -0.9720    -0.1850 ca         1 KUP      -0.094300
      9 C08          2.1870    -0.6160    -0.0630 ca         1 KUP      -0.309300
     10 C09          3.1280    -0.6790    -1.1080 ca         1 KUP       0.170900
     11 N10          4.1490     0.1950    -1.1940 nb         1 KUP      -0.276000
     12 C11          4.2110     1.1220    -0.2290 ca         1 KUP       0.402900
     13 N13          3.3820     1.2820     0.8070 nb         1 KUP      -0.329000
     14 C14          2.3740     0.4080     0.8800 ca         1 KUP       0.418900
     15 N15          1.5360     0.5910     1.9260 nv         1 KUP      -1.062900
     16 C16         -1.3230    -1.0880     0.7990 ca         1 KUP      -0.179000
     17 C19         -3.4240    -1.3010     2.7940 c3         1 KUP       0.145900
     18 H1           6.0070     1.7870    -0.9350 hn         1 KUP       0.486000
     19 H2           5.4500     2.5700     0.5070 hn         1 KUP       0.486000
     20 H3          -3.7740     2.4630    -2.0230 h1         1 KUP       0.039700
     21 H4          -4.3760     0.9770    -2.8060 h1         1 KUP       0.039700
     22 H5          -5.4680     1.9720    -1.8210 h1         1 KUP       0.039700
     23 H6          -2.0030     0.9130    -2.4790 ha         1 KUP       0.121000
     24 H7           0.1810    -0.1570    -2.1270 ha         1 KUP       0.123000
     25 H8           1.0820    -2.1480     0.9800 hc         1 KUP       0.051200
     26 H9           1.1770    -2.4090    -0.7410 hc         1 KUP       0.051200
     27 H10          3.0670    -1.4380    -1.8870 h4         1 KUP       0.014100
     28 H11          1.5990     1.4750     2.4230 hn         1 KUP       0.488000
     29 H12          0.6070     0.1880     1.8480 hn         1 KUP       0.488000
     30 H13         -1.1080    -1.6570     1.6990 ha         1 KUP       0.117000
     31 H14         -4.3410    -1.2470     3.3920 h1         1 KUP       0.039033
     32 H15         -3.2070    -2.3580     2.5980 h1         1 KUP       0.039033
     33 H16         -2.6050    -0.8760     3.3880 h1         1 KUP       0.039033
     34 C07          1.0430    -1.6260     0.0160 c3         1 KUP       0.046200
     35 O18         -3.5900    -0.5760     1.5620 os         1 KUP      -0.321100
@<TRIPOS>BOND
     1     1    12 1   
     2     1    18 1   
     3     1    19 1   
     4     2     5 ar  
     5     2    16 ar  
     6     2    35 1   
     7     3     4 1   
     8     3    20 1   
     9     3    21 1   
    10     3    22 1   
    11     4     5 1   
    12     5     6 ar  
    13     6     7 ar  
    14     6    23 1   
    15     7     8 ar  
    16     7    24 1   
    17     8    16 ar  
    18     8    34 1   
    19     9    10 ar  
    20     9    14 ar  
    21     9    34 1   
    22    10    11 ar  
    23    10    27 1   
    24    11    12 ar  
    25    12    13 ar  
    26    13    14 ar  
    27    14    15 1   
    28    15    28 1   
    29    15    29 1   
    30    16    30 1   
    31    17    31 1   
    32    17    32 1   
    33    17    33 1   
    34    17    35 1   
    35    25    34 1   
    36    26    34 1   
@<TRIPOS>SUBSTRUCTURE
     1 KUP         1 TEMP              0 ****  ****    0 ROOT
