@<TRIPOS>MOLECULE
KUP
   35    36     1     0     0
SMALL
bcc


@<TRIPOS>ATOM
      1 N12          5.3770     1.8270    -0.6980 nv         1 KUP      -0.942500
      2 C17         -2.6740    -0.5790     0.6060 ca         1 KUP       0.112100
      3 C01         -4.3790     1.5640    -1.7830 c3         1 KUP       0.121700
      4 O02         -4.1200     0.7440    -0.6630 os         1 KUP      -0.298900
      5 C03         -2.8660     0.2770    -0.4970 ca         1 KUP       0.109100
      6 C04         -1.7890     0.5750    -1.3130 ca         1 KUP      -0.187000
      7 C05         -0.5290     0.0360    -1.0540 ca         1 KUP      -0.118000
      8 C06         -0.3300    -0.8090     0.0210 ca         1 KUP      -0.094300
      9 C08          2.1900    -0.5530     0.0290 ca         1 KUP      -0.439900
     10 C09          3.1170    -0.8160    -0.9510 ca         1 KUP       0.499200
     11 N10          4.1850    -0.0650    -1.2130 nb         1 KUP      -0.802000
     12 C11          4.3250     1.0120    -0.4410 ca         1 KUP       0.928900
     13 N13          3.5030     1.3850     0.5400 nb         1 KUP      -0.855000
     14 C14          2.4440     0.6200     0.7790 ca         1 KUP       0.747200
     15 N15          1.6360     0.9880     1.7950 nv         1 KUP      -0.952500
     16 C16         -1.4160    -1.1060     0.8510 ca         1 KUP      -0.197000
     17 C19         -3.6430    -1.6880     2.4600 c3         1 KUP       0.122700
     18 H1           6.1260     1.4580    -1.2580 hn         1 KUP       0.430800
     19 H2           5.6420     2.4890     0.0110 hn         1 KUP       0.430800
     20 H3          -3.8070     2.4960    -1.7510 h1         1 KUP       0.039700
     21 H4          -4.1620     1.0510    -2.7240 h1         1 KUP       0.039700
     22 H5          -5.4390     1.8050    -1.7520 h1         1 KUP       0.039700
     23 H6          -1.9070     1.2320    -2.1650 ha         1 KUP       0.139000
     24 H7           0.2950     0.2900    -1.7090 ha         1 KUP       0.141000
     25 H8           1.0360    -1.8090     1.3250 hc         1 KUP       0.051200
     26 H9           1.1180    -2.3400    -0.3310 hc         1 KUP       0.051200
     27 H10          2.9930    -1.7000    -1.5720 h4         1 KUP       0.014100
     28 H11          1.7630     1.9060     2.1860 hn         1 KUP       0.432800
     29 H12          0.7030     0.6160     1.8520 hn         1 KUP       0.432800
     30 H13         -1.2560    -1.7680     1.6920 ha         1 KUP       0.135000
     31 H14         -4.6310    -1.7650     2.9060 h1         1 KUP       0.039033
     32 H15         -3.3140    -2.6870     2.1590 h1         1 KUP       0.039033
     33 H16         -2.9480    -1.3020     3.2100 h1         1 KUP       0.039033
     34 C07          1.0160    -1.4460     0.2920 c3         1 KUP       0.046200
     35 O18         -3.7680    -0.8180     1.3550 os         1 KUP      -0.297900
@<TRIPOS>BOND
     1     1    12 1   
     2     1    18 1   
     3     1    19 1   
     4     2     5 ar  
     5     2    16 ar  
     6     2    35 1   
     7     3     4 1   
     8     3    20 1   
     9     3    21 1   
    10     3    22 1   
    11     4     5 1   
    12     5     6 ar  
    13     6     7 ar  
    14     6    23 1   
    15     7     8 ar  
    16     7    24 1   
    17     8    16 ar  
    18     8    34 1   
    19     9    10 ar  
    20     9    14 ar  
    21     9    34 1   
    22    10    11 ar  
    23    10    27 1   
    24    11    12 ar  
    25    12    13 ar  
    26    13    14 ar  
    27    14    15 1   
    28    15    28 1   
    29    15    29 1   
    30    16    30 1   
    31    17    31 1   
    32    17    32 1   
    33    17    33 1   
    34    17    35 1   
    35    25    34 1   
    36    26    34 1   
@<TRIPOS>SUBSTRUCTURE
     1 KUP         1 TEMP              0 ****  ****    0 ROOT
