@<TRIPOS>MOLECULE
KUQ
   40    42     1     0     0
SMALL
bcc


@<TRIPOS>ATOM
      1 C11         -4.7590     0.2350     0.6200 ca         1 KUQ      -0.109000
      2 N3          -2.1590     0.1210     2.0580 na         1 KUQ      -0.288900
      3 C10         -5.9360     0.2900    -0.1130 ca         1 KUQ      -0.130000
      4 C8          -4.6810     0.1020    -2.1490 ca         1 KUQ      -0.130000
      5 C7          -3.5040     0.0480    -1.4210 ca         1 KUQ      -0.109000
      6 C4          -2.2670     0.0520     0.7100 cc         1 KUQ       0.456000
      7 C9          -5.9030     0.2240    -1.4990 ca         1 KUQ      -0.121000
      8 O5           1.6990     0.9140     0.2100 os         1 KUQ      -0.375600
      9 C5           3.0900     0.9730    -0.0110 c6         1 KUQ       0.146100
     10 C12          3.5320    -0.2280    -0.8480 c6         1 KUQ       0.118100
     11 C3           3.1070    -1.5120    -0.1470 c6         1 KUQ       0.074100
     12 C2           1.6150    -1.4890     0.1620 c6         1 KUQ       0.093100
     13 C1           1.2780    -0.2180     0.9440 c6         1 KUQ       0.139800
     14 C14         -0.1840    -0.0880     1.1860 cd         1 KUQ       0.321600
     15 N5          -1.0810    -0.0770     0.1620 nd         1 KUQ      -0.657000
     16 C13         -0.8390     0.0350     2.3780 cc         1 KUQ      -0.226600
     17 C6          -3.5280     0.1130    -0.0260 ca         1 KUQ      -0.117500
     18 O2           1.2350    -2.5910     0.9520 oh         1 KUQ      -0.593800
     19 O3           3.4560    -2.5950    -0.9860 oh         1 KUQ      -0.607800
     20 O4           4.9280    -0.1690    -1.0080 oh         1 KUQ      -0.598800
     21 H1          -4.8220     0.2860     1.7000 ha         1 KUQ       0.137500
     22 H2          -2.9080     0.2210     2.7240 hn         1 KUQ       0.302700
     23 H3          -6.8810     0.3850     0.4050 ha         1 KUQ       0.132000
     24 H4          -4.6440     0.0510    -3.2290 ha         1 KUQ       0.132000
     25 H5          -2.5560    -0.0480    -1.9330 ha         1 KUQ       0.137500
     26 H6          -6.8220     0.2670    -2.0690 ha         1 KUQ       0.132000
     27 H7           3.6310     0.9460     0.9500 h1         1 KUQ       0.054700
     28 H8           3.0220    -0.1740    -1.8230 h1         1 KUQ       0.057700
     29 H9           3.6540    -1.5720     0.8060 h1         1 KUQ       0.050700
     30 H10          1.0520    -1.4660    -0.7800 h1         1 KUQ       0.075700
     31 H11          1.7980    -0.2570     1.9150 h1         1 KUQ       0.047700
     32 H13         -0.4900     0.0670     3.3970 h4         1 KUQ       0.179000
     33 H14          1.1110    -3.3520     0.3780 ho         1 KUQ       0.409000
     34 H15          3.6200    -3.3690    -0.4410 ho         1 KUQ       0.412000
     35 H16          5.2080    -0.9750    -1.4550 ho         1 KUQ       0.421000
     36 H19          3.2950     4.1680    -0.2620 ho         1 KUQ       0.402000
     37 C15          3.3900     2.2870    -0.7030 c3         1 KUQ       0.149400
     38 O6           3.0440     3.3430     0.1620 oh         1 KUQ      -0.588800
     39 H17          4.4530     2.3090    -0.9630 h1         1 KUQ       0.035700
     40 H18          2.8240     2.3290    -1.6440 h1         1 KUQ       0.035700
@<TRIPOS>BOND
     1     1     3 ar  
     2     1    17 ar  
     3     1    21 1   
     4     2     6 1   
     5     2    16 1   
     6     2    22 1   
     7     3     7 ar  
     8     3    23 1   
     9     4     5 ar  
    10     4     7 ar  
    11     4    24 1   
    12     5    17 ar  
    13     5    25 1   
    14     6    15 2   
    15     6    17 1   
    16     7    26 1   
    17     8     9 1   
    18     8    13 1   
    19     9    10 1   
    20     9    27 1   
    21     9    37 1   
    22    10    11 1   
    23    10    20 1   
    24    10    28 1   
    25    11    12 1   
    26    11    19 1   
    27    11    29 1   
    28    12    13 1   
    29    12    18 1   
    30    12    30 1   
    31    13    14 1   
    32    13    31 1   
    33    14    15 1   
    34    14    16 2   
    35    16    32 1   
    36    18    33 1   
    37    19    34 1   
    38    20    35 1   
    39    36    38 1   
    40    37    38 1   
    41    37    39 1   
    42    37    40 1   
@<TRIPOS>SUBSTRUCTURE
     1 KUQ         1 TEMP              0 ****  ****    0 ROOT
