@<TRIPOS>MOLECULE
KUQ
   40    42     1     0     0
SMALL
No Charge or Current Charge


@<TRIPOS>ATOM
      1 C11         -4.8890     0.6440     0.1930 ca         1 KUQ      -0.091000
      2 N3          -2.0660     1.5000     0.6550 na         1 KUQ      -0.288500
      3 C10         -6.2010     0.1930    -0.0310 ca         1 KUQ      -0.112000
      4 C8          -5.3540    -2.0140    -0.5830 ca         1 KUQ      -0.112000
      5 C7          -4.0410    -1.5670    -0.3600 ca         1 KUQ      -0.091000
      6 C4          -2.4080     0.2280     0.2630 cc         1 KUQ       0.456000
      7 C9          -6.4360    -1.1350    -0.4190 ca         1 KUQ      -0.103000
      8 O5           2.0930     1.0070     0.6010 os         1 KUQ      -0.422000
      9 C5           3.5060     0.6720     0.6790 c6         1 KUQ       0.169300
     10 C12          3.9590    -0.0080    -0.6520 c6         1 KUQ       0.141300
     11 C3           3.0650    -1.2520    -0.9270 c6         1 KUQ       0.097300
     12 C2           1.5640    -0.8440    -0.9330 c6         1 KUQ       0.116300
     13 C1           1.2150    -0.1340     0.4140 c6         1 KUQ       0.163000
     14 C14         -0.2490     0.3040     0.4370 cd         1 KUQ       0.256300
     15 N5          -1.3210    -0.5160     0.1220 nd         1 KUQ      -0.657000
     16 C13         -0.6920     1.5600     0.7690 cc         1 KUQ      -0.194000
     17 C6          -3.7880    -0.2310     0.0330 ca         1 KUQ      -0.117500
     18 O2           0.7310    -2.0010    -1.1520 oh         1 KUQ      -0.716000
     19 O3           3.4220    -1.8730    -2.1740 oh         1 KUQ      -0.670000
     20 O4           5.3390    -0.4150    -0.6210 oh         1 KUQ      -0.721000
     21 H1          -4.7400     1.6780     0.4930 ha         1 KUQ       0.119500
     22 H2          -2.7220     2.2520     0.8270 hn         1 KUQ       0.353000
     23 H3          -7.0390     0.8760     0.0960 ha         1 KUQ       0.114000
     24 H4          -5.5330    -3.0450    -0.8840 ha         1 KUQ       0.114000
     25 H5          -3.2180    -2.2660    -0.4920 ha         1 KUQ       0.119500
     26 H6          -7.4520    -1.4820    -0.5930 ha         1 KUQ       0.114000
     27 H7           3.6570    -0.0250     1.5160 h1         1 KUQ       0.054700
     28 H8           3.8040     0.7120    -1.4700 h1         1 KUQ       0.057700
     29 H9           3.2130    -1.9680    -0.1040 h1         1 KUQ       0.050700
     30 H10          1.4050    -0.1130    -1.7420 h1         1 KUQ       0.075700
     31 H11          1.3820    -0.8350     1.2450 h1         1 KUQ       0.047700
     32 H13         -0.1480     2.4490     1.0650 h4         1 KUQ       0.161000
     33 H14         -0.1700    -1.7340    -0.8220 ho         1 KUQ       0.508000
     34 H15          2.6380    -2.4210    -2.4130 ho         1 KUQ       0.451000
     35 H16          5.4050    -1.1070    -1.3240 ho         1 KUQ       0.520000
     36 H19          4.3910     3.4910     2.2470 ho         1 KUQ       0.501000
     37 C15          4.3070     1.9810     0.9830 c3         1 KUQ       0.172600
     38 O6           3.8640     2.6610     2.1770 oh         1 KUQ      -0.711000
     39 H17          5.3700     1.7190     1.0770 h1         1 KUQ       0.035700
     40 H18          4.2130     2.6470     0.1140 h1         1 KUQ       0.035700
@<TRIPOS>BOND
     1     1     3 ar  
     2     1    17 ar  
     3     1    21 1   
     4     2     6 1   
     5     2    16 1   
     6     2    22 1   
     7     3     7 ar  
     8     3    23 1   
     9     4     5 ar  
    10     4     7 ar  
    11     4    24 1   
    12     5    17 ar  
    13     5    25 1   
    14     6    15 2   
    15     6    17 1   
    16     7    26 1   
    17     8     9 1   
    18     8    13 1   
    19     9    10 1   
    20     9    27 1   
    21     9    37 1   
    22    10    11 1   
    23    10    20 1   
    24    10    28 1   
    25    11    12 1   
    26    11    19 1   
    27    11    29 1   
    28    12    13 1   
    29    12    18 1   
    30    12    30 1   
    31    13    14 1   
    32    13    31 1   
    33    14    15 1   
    34    14    16 2   
    35    16    32 1   
    36    18    33 1   
    37    19    34 1   
    38    20    35 1   
    39    36    38 1   
    40    37    38 1   
    41    37    39 1   
    42    37    40 1   
@<TRIPOS>SUBSTRUCTURE
     1 KUQ         1 TEMP              0 ****  ****    0 ROOT
