@<TRIPOS>MOLECULE
KUR
   66    71     1     0     0
SMALL
No Charge or Current Charge


@<TRIPOS>ATOM
      1 N1         -36.1930     5.4450    26.9440 nb         1 KUR      -0.653000
      2 C7         -33.6430     7.2050    22.0390 cc         1 KUR       0.258000
      3 C8         -32.3050     8.2130    20.3600 cc         1 KUR       0.257800
      4 N2         -33.4540     8.2520    21.1560 na         1 KUR      -0.790000
      5 C9         -31.4830     7.1010    20.4850 cd         1 KUR      -0.399200
      6 O1         -36.7710     7.8100    23.8180 o          1 KUR      -0.569100
      7 C1         -35.4300     5.9620    25.9400 ca         1 KUR       0.356300
      8 C5         -34.5350     5.9530    23.5730 cd         1 KUR       0.273000
      9 C6         -34.7450     7.1880    22.8610 cd         1 KUR      -0.274600
     10 N3         -32.8350     6.1250    22.1860 n          1 KUR       0.134000
     11 C4         -36.9040     4.3270    26.6290 ca         1 KUR       0.301900
     12 C3         -36.8500     3.7280    25.3430 ca         1 KUR       0.281900
     13 C2         -35.3810     5.3680    24.6390 ca         1 KUR       0.264000
     14 N4         -33.4210     5.3420    23.1630 nc         1 KUR      -0.471800
     15 N          -36.0880     4.2340    24.3360 nb         1 KUR      -0.630000
     16 C          -34.6080     7.1900    26.3160 c3         1 KUR      -0.143400
     17 C10        -31.6850     5.9750    21.4140 c          1 KUR       0.564000
     18 C11        -31.9930     9.2460    19.3680 ca         1 KUR      -0.102800
     19 C12        -33.0380     9.9290    18.7080 ca         1 KUR      -0.080000
     20 C13        -32.7570    10.9320    17.7640 ca         1 KUR      -0.108500
     21 C14        -31.4260    11.2770    17.4620 ca         1 KUR      -0.043300
     22 C15        -30.3810    10.6040    18.1230 ca         1 KUR      -0.108500
     23 C16        -30.6600     9.6000    19.0670 ca         1 KUR      -0.080000
     24 C17        -31.1310    12.3760    16.4300 c6         1 KUR      -0.023400
     25 C18        -30.3320    11.8300    15.2130 c6         1 KUR      -0.068400
     26 C19        -30.0620    12.9410    14.1680 c6         1 KUR      -0.074400
     27 C20        -29.3300    14.1470    14.8080 c6         1 KUR      -0.075400
     28 C21        -30.1170    14.6970    16.0230 c6         1 KUR      -0.074400
     29 C22        -30.3880    13.5840    17.0670 c6         1 KUR      -0.068400
     30 C23        -35.8960     8.1270    23.0180 c          1 KUR       0.669700
     31 C24        -36.0440    10.3880    23.1330 cy         1 KUR       0.098500
     32 C25        -37.0690    10.8990    22.0660 cy         1 KUR      -0.141700
     33 C26        -37.1430     9.4060    21.6030 cy         1 KUR       0.098500
     34 C27        -36.5670    11.9350    21.0470 c3         1 KUR       0.192600
     35 F          -37.5220    12.0900    20.0980 f          1 KUR      -0.270000
     36 N5         -35.7590     9.2740    22.1680 nj         1 KUR      -0.431800
     37 H          -34.1160     9.0260    21.1190 hn         1 KUR       0.535000
     38 H6         -30.6050     6.9810    19.8660 ha         1 KUR       0.227000
     39 H5         -37.5220     3.9000    27.4170 h4         1 KUR       0.028100
     40 H4         -37.4260     2.8300    25.1220 h4         1 KUR       0.029100
     41 H3         -34.4840     7.2740    27.4020 hc         1 KUR       0.062700
     42 H1         -33.6040     7.1480    25.8780 hc         1 KUR       0.062700
     43 H2         -35.0910     8.1090    25.9670 hc         1 KUR       0.062700
     44 H7         -34.0750     9.6760    18.9140 ha         1 KUR       0.122000
     45 H8         -33.5810    11.4380    17.2670 ha         1 KUR       0.122500
     46 H9         -29.3450    10.8590    17.9130 ha         1 KUR       0.122500
     47 H10        -29.8310     9.1140    19.5760 ha         1 KUR       0.122000
     48 H11        -32.0910    12.7510    16.0460 hc         1 KUR       0.054700
     49 H13        -30.8890    11.0090    14.7420 hc         1 KUR       0.042700
     50 H12        -29.3750    11.4050    15.5470 hc         1 KUR       0.042700
     51 H15        -31.0120    13.2750    13.7280 hc         1 KUR       0.041200
     52 H14        -29.4610    12.5370    13.3420 hc         1 KUR       0.041200
     53 H17        -28.3240    13.8420    15.1270 hc         1 KUR       0.040700
     54 H16        -29.1940    14.9410    14.0610 hc         1 KUR       0.040700
     55 H19        -29.5550    15.5170    16.4900 hc         1 KUR       0.041200
     56 H18        -31.0700    15.1260    15.6840 hc         1 KUR       0.041200
     57 H20        -29.4340    13.2560    17.5030 hc         1 KUR       0.042700
     58 H21        -30.9840    13.9920    17.8940 hc         1 KUR       0.042700
     59 H23        -35.1870    11.0530    23.2890 h1         1 KUR       0.062200
     60 H22        -36.5010    10.1300    24.0970 h1         1 KUR       0.062200
     61 H24        -38.0010    11.2770    22.4970 hc         1 KUR       0.086700
     62 H26        -37.9510     8.8350    22.0770 h1         1 KUR       0.062200
     63 H25        -37.1790     9.2730    20.5150 h1         1 KUR       0.062200
     64 H28        -35.6390    11.5880    20.5740 h1         1 KUR       0.046700
     65 H27        -36.3930    12.8970    21.5460 h1         1 KUR       0.046700
     66 O          -30.9230     5.0180    21.4880 o          1 KUR      -0.465000
@<TRIPOS>BOND
     1     1     7 ar  
     2     1    11 ar  
     3     2     4 1   
     4     2     9 2   
     5     2    10 1   
     6     3     4 1   
     7     3     5 2   
     8     3    18 1   
     9     4    37 1   
    10     5    17 1   
    11     5    38 1   
    12     6    30 2   
    13     7    13 ar  
    14     7    16 1   
    15     8     9 1   
    16     8    13 1   
    17     8    14 2   
    18     9    30 1   
    19    10    14 1   
    20    10    17 1   
    21    11    12 ar  
    22    11    39 1   
    23    12    15 ar  
    24    12    40 1   
    25    13    15 ar  
    26    16    41 1   
    27    16    42 1   
    28    16    43 1   
    29    17    66 2   
    30    18    19 ar  
    31    18    23 ar  
    32    19    20 ar  
    33    19    44 1   
    34    20    21 ar  
    35    20    45 1   
    36    21    22 ar  
    37    21    24 1   
    38    22    23 ar  
    39    22    46 1   
    40    23    47 1   
    41    24    25 1   
    42    24    29 1   
    43    24    48 1   
    44    25    26 1   
    45    25    49 1   
    46    25    50 1   
    47    26    27 1   
    48    26    51 1   
    49    26    52 1   
    50    27    28 1   
    51    27    53 1   
    52    27    54 1   
    53    28    29 1   
    54    28    55 1   
    55    28    56 1   
    56    29    57 1   
    57    29    58 1   
    58    30    36 1   
    59    31    32 1   
    60    31    36 1   
    61    31    59 1   
    62    31    60 1   
    63    32    33 1   
    64    32    34 1   
    65    32    61 1   
    66    33    36 1   
    67    33    62 1   
    68    33    63 1   
    69    34    35 1   
    70    34    64 1   
    71    34    65 1   
@<TRIPOS>SUBSTRUCTURE
     1 KUR         1 TEMP              0 ****  ****    0 ROOT
