@<TRIPOS>MOLECULE
KUR
   66    71     1     0     0
SMALL
bcc


@<TRIPOS>ATOM
      1 N1         -35.7170     4.6140    26.8550 nb         1 KUR      -0.653000
      2 C7         -33.6580     7.8610    22.3560 cc         1 KUR       0.170300
      3 C8         -32.2580     8.5200    20.5730 cc         1 KUR       0.257800
      4 N2         -33.2850     8.7740    21.4270 na         1 KUR      -0.596400
      5 C9         -31.5590     7.3550    20.6720 cd         1 KUR      -0.349200
      6 O1         -35.6510     9.3790    24.8100 o          1 KUR      -0.569100
      7 C1         -34.8510     5.1030    25.9740 ca         1 KUR       0.356300
      8 C5         -34.4420     6.5800    23.9510 cd         1 KUR       0.338300
      9 C6         -34.6410     7.8330    23.3190 cd         1 KUR      -0.339900
     10 N3         -32.9580     6.7000    22.4610 n          1 KUR       0.083300
     11 C4         -36.9830     4.9910    26.7830 ca         1 KUR       0.301900
     12 C3         -37.4150     5.8890    25.8210 ca         1 KUR       0.281900
     13 C2         -35.3010     6.0030    24.9920 ca         1 KUR       0.264000
     14 N4         -33.4400     5.9110    23.4250 nc         1 KUR      -0.471800
     15 N          -36.5710     6.3860    24.9340 nb         1 KUR      -0.630000
     16 C          -33.4300     4.6550    26.1050 c3         1 KUR      -0.143400
     17 C10        -31.8490     6.3560    21.6610 c          1 KUR       0.639500
     18 C11        -31.9790     9.5360    19.5490 ca         1 KUR      -0.102800
     19 C12        -33.0160    10.2110    18.9070 ca         1 KUR      -0.098000
     20 C13        -32.7350    11.1440    17.9210 ca         1 KUR      -0.126500
     21 C14        -31.4260    11.4370    17.5520 ca         1 KUR      -0.043300
     22 C15        -30.3950    10.7580    18.2040 ca         1 KUR      -0.126500
     23 C16        -30.6630     9.8220    19.1850 ca         1 KUR      -0.098000
     24 C17        -31.1310    12.4580    16.4850 c6         1 KUR      -0.023400
     25 C18        -30.3920    11.8400    15.2930 c6         1 KUR      -0.068400
     26 C19        -30.0920    12.8820    14.2190 c6         1 KUR      -0.074400
     27 C20        -29.3140    14.0620    14.7910 c6         1 KUR      -0.075400
     28 C21        -30.0500    14.6850    15.9700 c6         1 KUR      -0.074400
     29 C22        -30.3490    13.6500    17.0490 c6         1 KUR      -0.068400
     30 C23        -35.5530     8.9400    23.6770 c          1 KUR       0.736700
     31 C24        -37.2270    10.5090    22.6510 cy         1 KUR       0.098500
     32 C25        -37.5960    10.1080    21.2060 cy         1 KUR      -0.141700
     33 C26        -36.6540     8.8970    21.3640 cy         1 KUR       0.098500
     34 C27        -37.1370    11.1170    20.1890 c3         1 KUR       0.173900
     35 F          -37.2610    10.5840    18.9080 f          1 KUR      -0.251300
     36 N5         -36.1990     9.4780    22.6280 nj         1 KUR      -0.498800
     37 H          -33.7300     9.6820    21.4340 hn         1 KUR       0.479800
     38 H6         -30.7700     7.1390    19.9670 ha         1 KUR       0.177000
     39 H5         -37.6720     4.5750    27.5090 h4         1 KUR       0.028100
     40 H4         -38.4490     6.2050    25.7670 h4         1 KUR       0.029100
     41 H3         -33.2910     4.1770    27.0710 hc         1 KUR       0.062700
     42 H1         -33.1720     3.9360    25.3270 hc         1 KUR       0.062700
     43 H2         -32.7310     5.4850    26.0140 hc         1 KUR       0.062700
     44 H7         -34.0520     9.9950    19.1430 ha         1 KUR       0.140000
     45 H8         -33.5560    11.6490    17.4260 ha         1 KUR       0.140500
     46 H9         -29.3630    10.9660    17.9500 ha         1 KUR       0.140500
     47 H10        -29.8430     9.3230    19.6850 ha         1 KUR       0.140000
     48 H11        -32.0900    12.8390    16.1160 hc         1 KUR       0.054700
     49 H13        -30.9880    11.0250    14.8750 hc         1 KUR       0.042700
     50 H12        -29.4510    11.3940    15.6350 hc         1 KUR       0.042700
     51 H15        -31.0330    13.2410    13.7880 hc         1 KUR       0.041200
     52 H14        -29.5340    12.4190    13.4020 hc         1 KUR       0.041200
     53 H17        -28.3280    13.7180    15.1210 hc         1 KUR       0.040700
     54 H16        -29.1390    14.8110    14.0150 hc         1 KUR       0.040700
     55 H19        -29.4620    15.5030    16.3950 hc         1 KUR       0.041200
     56 H18        -30.9890    15.1280    15.6210 hc         1 KUR       0.041200
     57 H20        -29.4060    13.2980    17.4820 hc         1 KUR       0.042700
     58 H21        -30.9140    14.1060    17.8660 hc         1 KUR       0.042700
     59 H23        -36.8470    11.5230    22.7950 h1         1 KUR       0.062200
     60 H22        -38.0130    10.3180    23.3830 h1         1 KUR       0.062200
     61 H24        -38.6440     9.8540    21.0580 hc         1 KUR       0.086700
     62 H26        -37.1670     7.9430    21.4970 h1         1 KUR       0.062200
     63 H25        -35.8860     8.7820    20.5960 h1         1 KUR       0.062200
     64 H28        -36.0870    11.3810    20.3430 h1         1 KUR       0.046700
     65 H27        -37.7380    12.0270    20.2410 h1         1 KUR       0.046700
     66 O          -31.2650     5.3100    21.8370 o          1 KUR      -0.540500
@<TRIPOS>BOND
     1     1     7 ar  
     2     1    11 ar  
     3     2     4 1   
     4     2     9 2   
     5     2    10 1   
     6     3     4 1   
     7     3     5 2   
     8     3    18 1   
     9     4    37 1   
    10     5    17 1   
    11     5    38 1   
    12     6    30 2   
    13     7    13 ar  
    14     7    16 1   
    15     8     9 1   
    16     8    13 1   
    17     8    14 2   
    18     9    30 1   
    19    10    14 1   
    20    10    17 1   
    21    11    12 ar  
    22    11    39 1   
    23    12    15 ar  
    24    12    40 1   
    25    13    15 ar  
    26    16    41 1   
    27    16    42 1   
    28    16    43 1   
    29    17    66 2   
    30    18    19 ar  
    31    18    23 ar  
    32    19    20 ar  
    33    19    44 1   
    34    20    21 ar  
    35    20    45 1   
    36    21    22 ar  
    37    21    24 1   
    38    22    23 ar  
    39    22    46 1   
    40    23    47 1   
    41    24    25 1   
    42    24    29 1   
    43    24    48 1   
    44    25    26 1   
    45    25    49 1   
    46    25    50 1   
    47    26    27 1   
    48    26    51 1   
    49    26    52 1   
    50    27    28 1   
    51    27    53 1   
    52    27    54 1   
    53    28    29 1   
    54    28    55 1   
    55    28    56 1   
    56    29    57 1   
    57    29    58 1   
    58    30    36 1   
    59    31    32 1   
    60    31    36 1   
    61    31    59 1   
    62    31    60 1   
    63    32    33 1   
    64    32    34 1   
    65    32    61 1   
    66    33    36 1   
    67    33    62 1   
    68    33    63 1   
    69    34    35 1   
    70    34    64 1   
    71    34    65 1   
@<TRIPOS>SUBSTRUCTURE
     1 KUR         1 TEMP              0 ****  ****    0 ROOT
