@<TRIPOS>MOLECULE
KUS
   22    22     1     0     0
SMALL
abcg2


@<TRIPOS>ATOM
      1 C10         19.9250   -87.0460    55.5450 c          1 KUS       0.557100
      2 C20         25.4400   -88.2220    58.9230 ca         1 KUS      -0.075000
      3 C02         25.9020   -87.0260    59.4430 ca         1 KUS       0.092000
      4 C03         25.5340   -85.8210    58.8660 ca         1 KUS      -0.075000
      5 C04         24.6990   -85.8250    57.7640 ca         1 KUS      -0.141500
      6 C05         24.2200   -87.0220    57.2260 ca         1 KUS      -0.012000
      7 C07         22.8140   -87.9080    55.3810 c          1 KUS       0.615300
      8 C08         21.9890   -87.4140    54.2320 ce         1 KUS      -0.206200
      9 C09         20.7080   -87.0530    54.2960 cf         1 KUS      -0.291200
     10 C19         24.6010   -88.2270    57.8180 ca         1 KUS      -0.141500
     11 N06         23.3740   -86.9220    56.1180 ns         1 KUS      -0.133000
     12 O17         20.3400   -87.4470    56.6080 o          1 KUS      -0.496100
     13 O18         22.9940   -89.1000    55.5330 o          1 KUS      -0.558100
     14 H1          18.9030   -86.6470    55.4470 h4         1 KUS      -0.000800
     15 H2          25.7270   -89.1620    59.3730 ha         1 KUS       0.129500
     16 H3          25.8910   -84.8820    59.2670 ha         1 KUS       0.129500
     17 H4          24.4160   -84.8790    57.3170 ha         1 KUS       0.132500
     18 H5          22.4960   -87.4180    53.2720 ha         1 KUS       0.202000
     19 H6          20.1920   -86.7490    53.3940 ha         1 KUS       0.193000
     20 H7          24.2540   -89.1720    57.4350 ha         1 KUS       0.132500
     21 H8          23.1290   -85.9790    55.8500 hn         1 KUS       0.153000
     22 CL01        26.9480   -87.0330    60.8260 cl         1 KUS      -0.204000
@<TRIPOS>BOND
     1     1     9 1   
     2     1    12 2   
     3     1    14 1   
     4     2     3 ar  
     5     2    10 ar  
     6     2    15 1   
     7     3     4 ar  
     8     3    22 1   
     9     4     5 ar  
    10     4    16 1   
    11     5     6 ar  
    12     5    17 1   
    13     6    10 ar  
    14     6    11 1   
    15     7     8 1   
    16     7    11 1   
    17     7    13 2   
    18     8     9 2   
    19     8    18 1   
    20     9    19 1   
    21    10    20 1   
    22    11    21 1   
@<TRIPOS>SUBSTRUCTURE
     1 KUS         1 TEMP              0 ****  ****    0 ROOT
