@<TRIPOS>MOLECULE
KUS
   22    22     1     0     0
SMALL
No Charge or Current Charge


@<TRIPOS>ATOM
      1 C10         20.5580   -85.7010    55.0550 c          1 KUS       0.557100
      2 C20         25.9520   -88.1660    58.6580 ca         1 KUS      -0.075000
      3 C02         25.9560   -87.0080    59.4500 ca         1 KUS       0.092000
      4 C03         25.0200   -85.9910    59.2090 ca         1 KUS      -0.075000
      5 C04         24.0790   -86.1350    58.1730 ca         1 KUS      -0.141500
      6 C05         24.0630   -87.2920    57.3690 ca         1 KUS      -0.012000
      7 C07         22.7890   -88.3070    55.3770 c          1 KUS       0.615300
      8 C08         21.6400   -88.0280    54.4430 ce         1 KUS      -0.206200
      9 C09         20.7400   -86.9850    54.3050 cf         1 KUS      -0.291200
     10 C19         25.0110   -88.3110    57.6210 ca         1 KUS      -0.141500
     11 N06         23.0790   -87.3590    56.3430 ns         1 KUS      -0.133000
     12 O17         21.2350   -85.3230    55.9990 o          1 KUS      -0.496100
     13 O18         23.4220   -89.3480    55.2540 o          1 KUS      -0.558100
     14 H1          19.7210   -85.0700    54.6820 h4         1 KUS      -0.000800
     15 H2          26.6780   -88.9530    58.8470 ha         1 KUS       0.129500
     16 H3          25.0230   -85.0940    59.8230 ha         1 KUS       0.129500
     17 H4          23.3580   -85.3390    57.9960 ha         1 KUS       0.132500
     18 H5          21.5210   -88.8460    53.7330 ha         1 KUS       0.202000
     19 H6          20.0070   -87.0900    53.5050 ha         1 KUS       0.193000
     20 H7          25.0380   -89.2210    57.0320 ha         1 KUS       0.132500
     21 H8          22.4720   -86.5530    56.3170 hn         1 KUS       0.153000
     22 Cl01        27.1340   -86.8310    60.7440 cl         1 KUS      -0.204000
@<TRIPOS>BOND
     1     1     9 1   
     2     1    12 2   
     3     1    14 1   
     4     2     3 ar  
     5     2    10 ar  
     6     2    15 1   
     7     3     4 ar  
     8     3    22 1   
     9     4     5 ar  
    10     4    16 1   
    11     5     6 ar  
    12     5    17 1   
    13     6    10 ar  
    14     6    11 1   
    15     7     8 1   
    16     7    11 1   
    17     7    13 2   
    18     8     9 2   
    19     8    18 1   
    20     9    19 1   
    21    10    20 1   
    22    11    21 1   
@<TRIPOS>SUBSTRUCTURE
     1 KUS         1 TEMP              0 ****  ****    0 ROOT
