@<TRIPOS>MOLECULE
KUT
  111   110     1     0     0
SMALL
No Charge or Current Charge


@<TRIPOS>ATOM
      1 C28        -42.1060    14.1710    67.0080 c3         1 KUT       0.086000
      2 C29        -41.2770    15.4160    66.6040 c3         1 KUT       0.142600
      3 C30        -42.6900    17.0600    65.4010 c3         1 KUT       0.124600
      4 C27        -43.7990    13.5260    68.7810 c          1 KUT       0.612100
      5 C26        -43.6830    12.0270    68.3870 c3         1 KUT       0.064600
      6 C23        -46.1600     9.8650    63.6510 c3         1 KUT       0.140600
      7 C22        -45.5710    10.5190    62.3720 c3         1 KUT       0.075000
      8 C21        -45.6090    13.0510    62.2700 c          1 KUT       0.609100
      9 C19        -47.1220    15.0580    62.7890 c3         1 KUT      -0.060400
     10 C14        -45.8720    21.0240    59.1470 c3         1 KUT      -0.076400
     11 C15        -46.3870    20.2050    60.3510 c3         1 KUT      -0.072400
     12 C16        -45.9010    18.7370    60.3350 c3         1 KUT      -0.159400
     13 C13        -46.3610    22.4920    59.1630 c3         1 KUT      -0.073400
     14 C12        -45.7950    23.3690    58.0200 c3         1 KUT      -0.071400
     15 C11        -46.2570    22.9540    56.6030 c3         1 KUT      -0.076400
     16 O10        -49.7450    17.7300    62.9120 o          1 KUT      -0.722500
     17 C6         -46.0400    25.1040    46.5270 c3         1 KUT      -0.079400
     18 C5         -45.5810    25.5170    47.9430 c3         1 KUT      -0.075400
     19 C4         -46.0930    24.5660    49.0460 c3         1 KUT      -0.075400
     20 C2         -46.1470    24.0280    51.5650 c3         1 KUT      -0.075400
     21 C1         -45.6890    24.4420    52.9810 c3         1 KUT      -0.074400
     22 C8         -45.9860    25.6430    44.0020 c3         1 KUT      -0.204400
     23 C7         -45.5280    26.0550    45.4220 c3         1 KUT      -0.054400
     24 N          -47.4250    17.0420    61.2450 ns         1 KUT      -0.468900
     25 C          -46.2020    23.4910    54.0840 c3         1 KUT      -0.075400
     26 O          -44.3400    26.4150    42.4740 o          1 KUT      -0.745000
     27 C10        -45.7440    23.9050    55.5000 c3         1 KUT      -0.075400
     28 C17        -46.4340    17.9550    61.5420 c          1 KUT       0.606100
     29 C18        -48.0900    16.1340    62.2150 c3         1 KUT      -0.024300
     30 C20        -46.4020    14.2320    61.6930 c3         1 KUT      -0.148400
     31 C24        -44.2210    10.2760    65.0880 c3         1 KUT       0.160600
     32 C25        -43.9200    10.4080    66.6010 c3         1 KUT       0.162600
     33 C3         -45.6350    24.9790    50.4620 c3         1 KUT      -0.074400
     34 C31        -43.7070    16.0420    64.8080 c3         1 KUT       0.127600
     35 C32        -45.6430    16.8140    66.1190 c3         1 KUT       0.040600
     36 C33        -46.8500    16.3450    66.9640 c          1 KUT       0.612900
     37 C34        -48.8880    16.9450    63.3000 c          1 KUT       0.718000
     38 C9         -45.4400    26.6350    42.9580 c          1 KUT       0.718000
     39 N1         -46.1740    11.8170    62.0330 ns         1 KUT      -0.518900
     40 N2         -42.9380    14.4230    68.1900 ns         1 KUT      -0.474900
     41 O1         -46.1090    27.6220    42.6940 o          1 KUT      -0.745000
     42 O11        -48.6730    16.7350    64.4860 o          1 KUT      -0.722500
     43 O2         -45.9920    18.1130    62.6700 o          1 KUT      -0.620100
     44 O3         -44.5320    13.1880    62.8320 o          1 KUT      -0.599100
     45 O4         -45.6360    10.4690    64.8550 os         1 KUT      -0.422000
     46 O5         -44.0300    11.7850    67.0030 os         1 KUT      -0.411000
     47 O6         -44.5640    13.9170    69.6540 o          1 KUT      -0.603100
     48 O7         -42.1090    16.6000    66.6480 os         1 KUT      -0.443000
     49 O8         -44.7510    15.7270    65.7590 os         1 KUT      -0.407000
     50 O9         -47.0360    15.1890    67.3430 o          1 KUT      -0.526100
     51 H51        -41.4180    13.3420    67.2210 h1         1 KUT       0.059200
     52 H52        -42.7490    13.8640    66.1760 h1         1 KUT       0.059200
     53 H53        -40.4580    15.5240    67.3270 h1         1 KUT       0.027700
     54 H54        -40.8270    15.2700    65.6130 h1         1 KUT       0.027700
     55 H55        -43.1950    18.0210    65.5570 h1         1 KUT       0.030700
     56 H56        -41.8990    17.2360    64.6600 h1         1 KUT       0.030700
     57 H48        -44.3390    11.4500    69.0520 h1         1 KUT       0.026700
     58 H49        -42.6490    11.7140    68.5800 h1         1 KUT       0.026700
     59 H42        -47.2540     9.9540    63.6270 h1         1 KUT       0.033700
     60 H43        -45.9230     8.7930    63.6400 h1         1 KUT       0.033700
     61 H41        -44.4810    10.6190    62.4490 h1         1 KUT       0.044700
     62 H40        -45.7660     9.8430    61.5290 h1         1 KUT       0.044700
     63 H36        -47.6960    14.3760    63.4290 hc         1 KUT       0.082700
     64 H35        -46.3750    15.5330    63.4340 hc         1 KUT       0.082700
     65 H29        -46.2030    20.5360    58.2230 hc         1 KUT       0.029200
     66 H28        -44.7750    21.0100    59.1450 hc         1 KUT       0.029200
     67 H31        -46.0580    20.6850    61.2820 hc         1 KUT       0.061700
     68 H30        -47.4850    20.2210    60.3560 hc         1 KUT       0.061700
     69 H33        -46.2410    18.2690    59.4030 hc         1 KUT       0.036200
     70 H32        -44.8050    18.7350    60.3710 hc         1 KUT       0.036200
     71 H27        -46.0750    22.9480    60.1190 hc         1 KUT       0.040200
     72 H26        -47.4570    22.5110    59.1230 hc         1 KUT       0.040200
     73 H25        -44.6990    23.3550    58.0640 hc         1 KUT       0.030700
     74 H24        -46.1010    24.4070    58.2000 hc         1 KUT       0.030700
     75 H23        -47.3540    22.9280    56.5750 hc         1 KUT       0.039700
     76 H22        -45.9060    21.9390    56.3840 hc         1 KUT       0.039700
     77 H14        -47.1360    25.0750    46.4980 hc         1 KUT       0.023700
     78 H13        -45.6870    24.0860    46.3180 hc         1 KUT       0.023700
     79 H12        -44.4850    25.5460    47.9720 hc         1 KUT       0.033200
     80 H11        -45.9340    26.5350    48.1530 hc         1 KUT       0.033200
     81 H10        -47.1900    24.5370    49.0170 hc         1 KUT       0.032200
     82 H9         -45.7400    23.5480    48.8370 hc         1 KUT       0.032200
     83 H6         -47.2440    24.0000    51.5360 hc         1 KUT       0.035200
     84 H5         -45.7940    23.0110    51.3560 hc         1 KUT       0.035200
     85 H4         -44.5920    24.4700    53.0110 hc         1 KUT       0.034200
     86 H3         -46.0410    25.4600    53.1900 hc         1 KUT       0.034200
     87 H18        -47.0830    25.6710    44.0210 hc         1 KUT       0.014200
     88 H17        -45.5730    24.6410    43.8320 hc         1 KUT       0.014200
     89 H16        -44.4310    26.0850    45.4530 hc         1 KUT       0.036700
     90 H15        -45.8800    27.0730    45.6330 hc         1 KUT       0.036700
     91 H34        -47.7210    17.0040    60.2770 hn         1 KUT       0.285500
     92 H2         -47.2980    23.4630    54.0540 hc         1 KUT       0.036700
     93 H1         -45.8490    22.4730    53.8750 hc         1 KUT       0.036700
     94 H21        -44.6470    23.9320    55.5300 hc         1 KUT       0.032700
     95 H20        -46.0960    24.9230    55.7090 hc         1 KUT       0.032700
     96 H          -48.8530    15.5910    61.6420 h1         1 KUT       0.019700
     97 H38        -45.7060    14.8900    61.1600 hc         1 KUT       0.040200
     98 H37        -47.1630    13.8590    60.9970 hc         1 KUT       0.040200
     99 H44        -43.9170     9.2690    64.7720 h1         1 KUT       0.025700
    100 H45        -43.6240    11.0030    64.5240 h1         1 KUT       0.025700
    101 H46        -44.6130     9.7760    67.1710 h1         1 KUT       0.017200
    102 H47        -42.9010    10.0430    66.7850 h1         1 KUT       0.017200
    103 H8         -44.5380    25.0080    50.4910 hc         1 KUT       0.033700
    104 H7         -45.9870    25.9970    50.6720 hc         1 KUT       0.033700
    105 H57        -44.1410    16.4720    63.8960 h1         1 KUT       0.049200
    106 H58        -43.1770    15.1330    64.5020 h1         1 KUT       0.049200
    107 H60        -46.0480    17.2990    65.2240 h1         1 KUT       0.051700
    108 H59        -45.1170    17.5780    66.7040 h1         1 KUT       0.051700
    109 H61        -47.5690    17.1500    67.2320 h4         1 KUT      -0.009800
    110 H39        -47.0630    11.8180    61.5460 hn         1 KUT       0.302500
    111 H50        -43.0550    15.3880    68.4750 hn         1 KUT       0.370500
@<TRIPOS>BOND
     1     1     2 1   
     2     1    40 1   
     3     1    51 1   
     4     1    52 1   
     5     2    48 1   
     6     2    53 1   
     7     2    54 1   
     8     3    34 1   
     9     3    48 1   
    10     3    55 1   
    11     3    56 1   
    12     4     5 1   
    13     4    40 1   
    14     4    47 2   
    15     5    46 1   
    16     5    57 1   
    17     5    58 1   
    18     6     7 1   
    19     6    45 1   
    20     6    59 1   
    21     6    60 1   
    22     7    39 1   
    23     7    61 1   
    24     7    62 1   
    25     8    30 1   
    26     8    39 1   
    27     8    44 2   
    28     9    29 1   
    29     9    30 1   
    30     9    63 1   
    31     9    64 1   
    32    10    11 1   
    33    10    13 1   
    34    10    65 1   
    35    10    66 1   
    36    11    12 1   
    37    11    67 1   
    38    11    68 1   
    39    12    28 1   
    40    12    69 1   
    41    12    70 1   
    42    13    14 1   
    43    13    71 1   
    44    13    72 1   
    45    14    15 1   
    46    14    73 1   
    47    14    74 1   
    48    15    27 1   
    49    15    75 1   
    50    15    76 1   
    51    16    37 1   
    52    17    18 1   
    53    17    23 1   
    54    17    77 1   
    55    17    78 1   
    56    18    19 1   
    57    18    79 1   
    58    18    80 1   
    59    19    33 1   
    60    19    81 1   
    61    19    82 1   
    62    20    21 1   
    63    20    33 1   
    64    20    83 1   
    65    20    84 1   
    66    21    25 1   
    67    21    85 1   
    68    21    86 1   
    69    22    23 1   
    70    22    38 1   
    71    22    87 1   
    72    22    88 1   
    73    23    89 1   
    74    23    90 1   
    75    24    28 1   
    76    24    29 1   
    77    24    91 1   
    78    25    27 1   
    79    25    92 1   
    80    25    93 1   
    81    26    38 1   
    82    27    94 1   
    83    27    95 1   
    84    28    43 2   
    85    29    37 1   
    86    29    96 1   
    87    30    97 1   
    88    30    98 1   
    89    31    32 1   
    90    31    45 1   
    91    31    99 1   
    92    31   100 1   
    93    32    46 1   
    94    32   101 1   
    95    32   102 1   
    96    33   103 1   
    97    33   104 1   
    98    34    49 1   
    99    34   105 1   
   100    34   106 1   
   101    35    36 1   
   102    35    49 1   
   103    35   107 1   
   104    35   108 1   
   105    36    50 2   
   106    36   109 1   
   107    37    42 1   
   108    38    41 1   
   109    39   110 1   
   110    40   111 1   
@<TRIPOS>SUBSTRUCTURE
     1 KUT         1 TEMP              0 ****  ****    0 ROOT
