@<TRIPOS>MOLECULE
KUT
  111   110     1     0     0
SMALL
bcc


@<TRIPOS>ATOM
      1 C28        -43.8670    14.1630    67.0480 c3         1 KUT       0.086000
      2 C29        -42.9770    15.0360    67.9280 c3         1 KUT       0.119400
      3 C30        -42.9130    17.3090    67.1560 c3         1 KUT       0.101400
      4 C27        -46.0890    13.3090    67.8550 c          1 KUT       0.679100
      5 C26        -45.5660    11.8800    67.8650 c3         1 KUT       0.041400
      6 C23        -44.9120     9.5760    62.8570 c3         1 KUT       0.117400
      7 C22        -44.1970    10.6680    62.0720 c3         1 KUT       0.075000
      8 C21        -44.9970    12.9830    62.4480 c          1 KUT       0.676100
      9 C19        -46.3720    15.0820    62.8590 c3         1 KUT      -0.060400
     10 C14        -44.8880    20.5800    58.7790 c3         1 KUT      -0.076400
     11 C15        -45.2130    19.8070    60.0480 c3         1 KUT      -0.072400
     12 C16        -45.1320    18.2940    59.8430 c3         1 KUT      -0.159400
     13 C13        -45.0030    22.0890    58.9610 c3         1 KUT      -0.073400
     14 C12        -44.5640    22.8990    57.7440 c3         1 KUT      -0.071400
     15 C11        -45.3990    22.6610    56.4910 c3         1 KUT      -0.076400
     16 O10        -47.8190    18.4190    62.8390 o          1 KUT      -0.827800
     17 C6         -46.9990    25.2480    46.7730 c3         1 KUT      -0.079400
     18 C5         -46.2030    25.5030    48.0470 c3         1 KUT      -0.075400
     19 C4         -46.5980    24.5920    49.2010 c3         1 KUT      -0.075400
     20 C2         -46.1960    23.9430    51.6300 c3         1 KUT      -0.075400
     21 C1         -45.3850    24.1930    52.8960 c3         1 KUT      -0.074400
     22 C8         -47.3900    25.8960    44.3500 c3         1 KUT      -0.204400
     23 C7         -46.6080    26.1700    45.6250 c3         1 KUT      -0.054400
     24 N          -46.5770    16.7920    61.0610 ns         1 KUT      -0.535900
     25 C          -45.7980    23.3030    54.0610 c3         1 KUT      -0.075400
     26 O          -47.5010    26.3920    42.0340 o          1 KUT      -0.850300
     27 C10        -44.9830    23.5480    55.3250 c3         1 KUT      -0.075400
     28 C17        -45.4770    17.5570    61.1200 c          1 KUT       0.673100
     29 C18        -47.2140    16.1840    62.2100 c3         1 KUT      -0.024300
     30 C20        -45.8770    14.0600    61.8490 c3         1 KUT      -0.148400
     31 C24        -44.2140     9.9350    65.0780 c3         1 KUT       0.137400
     32 C25        -44.7280    10.1980    66.4700 c3         1 KUT       0.139400
     33 C3         -45.7920    24.8430    50.4690 c3         1 KUT      -0.074400
     34 C31        -43.4290    17.1630    65.7320 c3         1 KUT       0.104400
     35 C32        -45.5890    18.1500    65.8100 c3         1 KUT       0.017400
     36 C33        -46.8460    17.8930    66.5840 c          1 KUT       0.612900
     37 C34        -47.7340    17.2430    63.2280 c          1 KUT       0.928600
     38 C9         -47.0470    26.7790    43.1320 c          1 KUT       0.928600
     39 N1         -45.0320    11.8110    61.7870 ns         1 KUT      -0.585900
     40 N2         -45.2590    14.2690    67.4210 ns         1 KUT      -0.541900
     41 O1         -46.3710    27.8080    43.3340 o          1 KUT      -0.850300
     42 O11        -48.0680    16.7910    64.3430 o          1 KUT      -0.827800
     43 O2         -44.7820    17.6720    62.1230 o          1 KUT      -0.620100
     44 O3         -44.2740    13.1860    63.4150 o          1 KUT      -0.599100
     45 O4         -45.2800     9.9480    64.1600 os         1 KUT      -0.375600
     46 O5         -45.2380    11.5090    66.5510 os         1 KUT      -0.364600
     47 O6         -47.2310    13.5480    68.2260 o          1 KUT      -0.603100
     48 O7         -43.4170    16.3650    68.0670 os         1 KUT      -0.396600
     49 O8         -44.8260    16.9910    65.6750 os         1 KUT      -0.360600
     50 O9         -47.0350    16.9440    67.3020 o          1 KUT      -0.526100
     51 H51        -43.5160    13.1390    67.1580 h1         1 KUT       0.059200
     52 H52        -43.7550    14.4070    65.9900 h1         1 KUT       0.059200
     53 H53        -42.9680    14.6080    68.9340 h1         1 KUT       0.027700
     54 H54        -41.9490    14.9880    67.5460 h1         1 KUT       0.027700
     55 H55        -43.1930    18.2850    67.5610 h1         1 KUT       0.030700
     56 H56        -41.8150    17.2860    67.1180 h1         1 KUT       0.030700
     57 H48        -46.3520    11.2390    68.2800 h1         1 KUT       0.026700
     58 H49        -44.6940    11.7960    68.5320 h1         1 KUT       0.026700
     59 H42        -45.8340     9.3060    62.3350 h1         1 KUT       0.033700
     60 H43        -44.2730     8.6820    62.8670 h1         1 KUT       0.033700
     61 H41        -43.2980    11.0020    62.5880 h1         1 KUT       0.044700
     62 H40        -43.8710    10.2360    61.1230 h1         1 KUT       0.044700
     63 H36        -46.9970    14.5860    63.6030 hc         1 KUT       0.082700
     64 H35        -45.5310    15.5140    63.3980 hc         1 KUT       0.082700
     65 H29        -45.5560    20.2480    57.9780 hc         1 KUT       0.029200
     66 H28        -43.8730    20.3310    58.4500 hc         1 KUT       0.029200
     67 H31        -44.5260    20.1030    60.8460 hc         1 KUT       0.061700
     68 H30        -46.2180    20.0700    60.3930 hc         1 KUT       0.061700
     69 H33        -45.7900    18.0010    59.0210 hc         1 KUT       0.036200
     70 H32        -44.1150    18.0210    59.5480 hc         1 KUT       0.036200
     71 H27        -44.3970    22.3890    59.8220 hc         1 KUT       0.040200
     72 H26        -46.0380    22.3440    59.2160 hc         1 KUT       0.040200
     73 H25        -43.5140    22.6780    57.5250 hc         1 KUT       0.030700
     74 H24        -44.6010    23.9640    57.9960 hc         1 KUT       0.030700
     75 H23        -46.4570    22.8340    56.7210 hc         1 KUT       0.039700
     76 H22        -45.3250    21.6130    56.1810 hc         1 KUT       0.039700
     77 H14        -48.0680    25.3620    46.9840 hc         1 KUT       0.023700
     78 H13        -46.8640    24.2040    46.4650 hc         1 KUT       0.023700
     79 H12        -45.1350    25.3800    47.8370 hc         1 KUT       0.033200
     80 H11        -46.3310    26.5480    48.3520 hc         1 KUT       0.033200
     81 H10        -47.6640    24.7210    49.4170 hc         1 KUT       0.032200
     82 H9         -46.4770    23.5470    48.8950 hc         1 KUT       0.032200
     83 H6         -47.2600    24.0870    51.8460 hc         1 KUT       0.035200
     84 H5         -46.0880    22.8950    51.3310 hc         1 KUT       0.035200
     85 H4         -44.3210    24.0400    52.6820 hc         1 KUT       0.034200
     86 H3         -45.4850    25.2430    53.1900 hc         1 KUT       0.034200
     87 H18        -48.4630    26.0120    44.5530 hc         1 KUT       0.014200
     88 H17        -47.2720    24.8460    44.0620 hc         1 KUT       0.014200
     89 H16        -45.5350    26.0640    45.4320 hc         1 KUT       0.036700
     90 H15        -46.7550    27.2090    45.9340 hc         1 KUT       0.036700
     91 H34        -47.1110    16.8250    60.2090 hn         1 KUT       0.285500
     92 H2         -46.8600    23.4590    54.2770 hc         1 KUT       0.036700
     93 H1         -45.7020    22.2520    53.7660 hc         1 KUT       0.036700
     94 H21        -43.9210    23.3870    55.1090 hc         1 KUT       0.032700
     95 H20        -45.0740    24.6000    55.6180 hc         1 KUT       0.032700
     96 H          -48.1090    15.6980    61.8030 h1         1 KUT       0.019700
     97 H38        -45.2760    14.5560    61.0780 hc         1 KUT       0.040200
     98 H37        -46.7230    13.6110    61.3200 hc         1 KUT       0.040200
     99 H44        -43.7150     8.9560    65.0840 h1         1 KUT       0.025700
    100 H45        -43.4500    10.6820    64.8290 h1         1 KUT       0.025700
    101 H46        -45.4980     9.4620    66.7410 h1         1 KUT       0.017200
    102 H47        -43.8920    10.0620    67.1690 h1         1 KUT       0.017200
    103 H8         -44.7260    24.7030    50.2560 hc         1 KUT       0.033700
    104 H7         -45.9040    25.8910    50.7690 hc         1 KUT       0.033700
    105 H57        -43.0990    18.0360    65.1540 h1         1 KUT       0.049200
    106 H58        -42.9920    16.2880    65.2490 h1         1 KUT       0.049200
    107 H60        -45.8530    18.5840    64.8390 h1         1 KUT       0.051700
    108 H59        -45.0690    18.9490    66.3630 h1         1 KUT       0.051700
    109 H61        -47.5790    18.7130    66.5080 h4         1 KUT      -0.009800
    110 H39        -45.6710    11.7260    61.0140 hn         1 KUT       0.302500
    111 H50        -45.6580    15.2000    67.3600 hn         1 KUT       0.370500
@<TRIPOS>BOND
     1     1     2 1   
     2     1    40 1   
     3     1    51 1   
     4     1    52 1   
     5     2    48 1   
     6     2    53 1   
     7     2    54 1   
     8     3    34 1   
     9     3    48 1   
    10     3    55 1   
    11     3    56 1   
    12     4     5 1   
    13     4    40 1   
    14     4    47 2   
    15     5    46 1   
    16     5    57 1   
    17     5    58 1   
    18     6     7 1   
    19     6    45 1   
    20     6    59 1   
    21     6    60 1   
    22     7    39 1   
    23     7    61 1   
    24     7    62 1   
    25     8    30 1   
    26     8    39 1   
    27     8    44 2   
    28     9    29 1   
    29     9    30 1   
    30     9    63 1   
    31     9    64 1   
    32    10    11 1   
    33    10    13 1   
    34    10    65 1   
    35    10    66 1   
    36    11    12 1   
    37    11    67 1   
    38    11    68 1   
    39    12    28 1   
    40    12    69 1   
    41    12    70 1   
    42    13    14 1   
    43    13    71 1   
    44    13    72 1   
    45    14    15 1   
    46    14    73 1   
    47    14    74 1   
    48    15    27 1   
    49    15    75 1   
    50    15    76 1   
    51    16    37 1   
    52    17    18 1   
    53    17    23 1   
    54    17    77 1   
    55    17    78 1   
    56    18    19 1   
    57    18    79 1   
    58    18    80 1   
    59    19    33 1   
    60    19    81 1   
    61    19    82 1   
    62    20    21 1   
    63    20    33 1   
    64    20    83 1   
    65    20    84 1   
    66    21    25 1   
    67    21    85 1   
    68    21    86 1   
    69    22    23 1   
    70    22    38 1   
    71    22    87 1   
    72    22    88 1   
    73    23    89 1   
    74    23    90 1   
    75    24    28 1   
    76    24    29 1   
    77    24    91 1   
    78    25    27 1   
    79    25    92 1   
    80    25    93 1   
    81    26    38 1   
    82    27    94 1   
    83    27    95 1   
    84    28    43 2   
    85    29    37 1   
    86    29    96 1   
    87    30    97 1   
    88    30    98 1   
    89    31    32 1   
    90    31    45 1   
    91    31    99 1   
    92    31   100 1   
    93    32    46 1   
    94    32   101 1   
    95    32   102 1   
    96    33   103 1   
    97    33   104 1   
    98    34    49 1   
    99    34   105 1   
   100    34   106 1   
   101    35    36 1   
   102    35    49 1   
   103    35   107 1   
   104    35   108 1   
   105    36    50 2   
   106    36   109 1   
   107    37    42 1   
   108    38    41 1   
   109    39   110 1   
   110    40   111 1   
@<TRIPOS>SUBSTRUCTURE
     1 KUT         1 TEMP              0 ****  ****    0 ROOT
