@<TRIPOS>MOLECULE
KUV
   54    57     1     0     0
SMALL
No Charge or Current Charge


@<TRIPOS>ATOM
      1 N2           4.6360    -2.2420     0.1540 na         1 KUV       0.120800
      2 C10         -1.2730    -1.8140    -0.1830 cc         1 KUV       0.083500
      3 C4           2.4360    -2.2820    -0.0070 cc         1 KUV      -0.025400
      4 C1           6.0390    -1.8040     0.1880 c3         1 KUV       0.070900
      5 C11         -2.5430    -2.3670    -0.1730 cd         1 KUV       0.278000
      6 C13         -2.4590     0.0520    -0.3230 cd         1 KUV       0.473900
      7 C15         -2.7130     1.4860    -0.4740 ca         1 KUV      -0.220500
      8 C16         -2.1000     2.2280    -1.5020 ca         1 KUV       0.219000
      9 C17         -2.3270     3.6080    -1.6230 ca         1 KUV      -0.171500
     10 C18         -3.1620     4.2700    -0.7080 ca         1 KUV      -0.048000
     11 C19         -3.7700     3.5390     0.3260 ca         1 KUV      -0.171500
     12 C20         -3.5440     2.1580     0.4410 ca         1 KUV       0.219000
     13 C25          4.0870     0.8040     1.0370 c3         1 KUV       0.231800
     14 C26          3.0430     1.4040     1.9980 c3         1 KUV      -0.090400
     15 C27          1.7100     1.8850     1.3630 c3         1 KUV       0.145500
     16 C29          1.8510     2.5600    -0.0530 c3         1 KUV       0.208300
     17 C3           3.4930    -1.4310     0.0380 cd         1 KUV       0.139000
     18 C31          1.9230     1.5500    -1.2270 c3         1 KUV      -0.122400
     19 C32          3.1900     0.6790    -1.2910 c3         1 KUV       0.232800
     20 C5           2.9920    -3.5760     0.0980 cc         1 KUV       0.241900
     21 C8          -0.0380    -2.6590    -0.1040 c          1 KUV       0.556600
     22 F21         -4.1210     1.4870     1.4630 f          1 KUV      -0.159500
     23 F22         -1.3160     1.6170    -2.4190 f          1 KUV      -0.159500
     24 F33          0.7880     3.3790    -0.2820 f          1 KUV      -0.279000
     25 N14         -1.2270    -0.4320    -0.2730 nc         1 KUV      -0.593000
     26 N23         -2.9040    -3.6920    -0.0860 nv         1 KUV      -1.057000
     27 N24          3.5060    -0.0260    -0.0350 nh         1 KUV      -0.842400
     28 N6           4.3120    -3.5980     0.1940 nd         1 KUV      -0.512800
     29 N7           1.1050    -1.8870    -0.1010 ns         1 KUV      -0.352100
     30 O9          -0.0090    -3.8850    -0.0430 o          1 KUV      -0.635100
     31 S12         -3.7700    -1.1210    -0.2800 ss         1 KUV      -0.067400
     32 H1           6.3300    -1.5930     1.2240 h1         1 KUV       0.053700
     33 H2           6.6850    -2.5910    -0.2190 h1         1 KUV       0.053700
     34 H3           6.1560    -0.8960    -0.4160 h1         1 KUV       0.053700
     35 H4          -1.8530     4.1630    -2.4280 ha         1 KUV       0.145000
     36 H5          -3.3360     5.3400    -0.8000 ha         1 KUV       0.128000
     37 H6          -4.4130     4.0420     1.0430 ha         1 KUV       0.145000
     38 H7           4.6550     1.6300     0.5890 h1         1 KUV       0.037700
     39 H8           4.8030     0.2200     1.6300 h1         1 KUV       0.037700
     40 H9           2.8040     0.6480     2.7560 hc         1 KUV       0.052700
     41 H10          3.5230     2.2340     2.5310 hc         1 KUV       0.052700
     42 H28          1.0710     1.0020     1.2140 h1         1 KUV       0.045700
     43 H30          2.7500     3.1900    -0.0600 h1         1 KUV       0.057700
     44 H11          1.0480     0.8950    -1.1870 hc         1 KUV       0.063200
     45 H12          1.8470     2.1010    -2.1710 hc         1 KUV       0.063200
     46 H13          3.0690    -0.0500    -2.1040 h1         1 KUV       0.038200
     47 H14          4.0380     1.3200    -1.5710 h1         1 KUV       0.038200
     48 H15          2.4640    -4.5190     0.1090 h4         1 KUV       0.060100
     49 H16         -2.1730    -4.4070    -0.1130 hn         1 KUV       0.504000
     50 H17         -3.8660    -3.9880    -0.2470 hn         1 KUV       0.504000
     51 H18          0.2580     3.2470     1.8530 hn         1 KUV       0.400000
     52 H19          0.5060     2.1600     3.0200 hn         1 KUV       0.400000
     53 H21          0.9140    -0.8920    -0.1520 hn         1 KUV       0.354500
     54 N34          1.0080     2.7520     2.3500 n8         1 KUV      -1.003200
@<TRIPOS>BOND
     1     1     4 1   
     2     1    17 1   
     3     1    28 1   
     4     2     5 2   
     5     2    21 1   
     6     2    25 1   
     7     3    17 2   
     8     3    20 1   
     9     3    29 1   
    10     4    32 1   
    11     4    33 1   
    12     4    34 1   
    13     5    26 1   
    14     5    31 1   
    15     6     7 1   
    16     6    25 2   
    17     6    31 1   
    18     7     8 ar  
    19     7    12 ar  
    20     8     9 ar  
    21     8    23 1   
    22     9    10 ar  
    23     9    35 1   
    24    10    11 ar  
    25    10    36 1   
    26    11    12 ar  
    27    11    37 1   
    28    12    22 1   
    29    13    14 1   
    30    13    27 1   
    31    13    38 1   
    32    13    39 1   
    33    14    15 1   
    34    14    40 1   
    35    14    41 1   
    36    15    16 1   
    37    15    42 1   
    38    15    54 1   
    39    16    18 1   
    40    16    24 1   
    41    16    43 1   
    42    17    27 1   
    43    18    19 1   
    44    18    44 1   
    45    18    45 1   
    46    19    27 1   
    47    19    46 1   
    48    19    47 1   
    49    20    28 2   
    50    20    48 1   
    51    21    29 1   
    52    21    30 2   
    53    26    49 1   
    54    26    50 1   
    55    29    53 1   
    56    51    54 1   
    57    52    54 1   
@<TRIPOS>SUBSTRUCTURE
     1 KUV         1 TEMP              0 ****  ****    0 ROOT
