@<TRIPOS>MOLECULE
KUV
   54    57     1     0     0
SMALL
abcg2


@<TRIPOS>ATOM
      1 N2           4.5730    -2.1870     0.0260 na         1 KUV       0.120800
      2 C10         -1.2730    -1.9480    -0.0620 cc         1 KUV       0.083500
      3 C4           2.3950    -2.3630    -0.0620 cc         1 KUV      -0.025400
      4 C1           5.9200    -1.6840     0.1480 c3         1 KUV       0.070900
      5 C11         -2.5470    -2.4860     0.0220 cd         1 KUV       0.278000
      6 C13         -2.3870    -0.0380    -0.0790 cd         1 KUV       0.473900
      7 C15         -2.6110     1.4030    -0.1560 ca         1 KUV      -0.220500
      8 C16         -1.9490     2.1920    -1.0950 ca         1 KUV       0.219000
      9 C17         -2.0850     3.5640    -1.1480 ca         1 KUV      -0.171500
     10 C18         -2.9340     4.1830    -0.2410 ca         1 KUV      -0.048000
     11 C19         -3.6330     3.4430     0.7020 ca         1 KUV      -0.171500
     12 C20         -3.4560     2.0750     0.7220 ca         1 KUV       0.219000
     13 C25          3.5690     0.6590     1.2340 c3         1 KUV       0.231800
     14 C26          2.3230     1.3480     1.7820 c3         1 KUV      -0.090400
     15 C27          1.3990     2.0340     0.7670 c3         1 KUV       0.145500
     16 C29          2.1570     2.6720    -0.4000 c3         1 KUV       0.208300
     17 C3           3.4330    -1.4500    -0.0130 cd         1 KUV       0.139000
     18 C31          2.5010     1.7010    -1.5190 c3         1 KUV      -0.122400
     19 C32          3.5940     0.6860    -1.2140 c3         1 KUV       0.232800
     20 C5           3.0110    -3.6230    -0.0400 cc         1 KUV       0.241900
     21 C8          -0.0310    -2.7210    -0.0640 c          1 KUV       0.556600
     22 F21         -4.1120     1.3470     1.6310 f          1 KUV      -0.159500
     23 F22         -1.1650     1.5910    -1.9900 f          1 KUV      -0.159500
     24 F33          1.3210     3.6440    -0.9750 f          1 KUV      -0.279000
     25 N14         -1.2280    -0.5860    -0.1180 nc         1 KUV      -0.593000
     26 N23         -2.9190    -3.7680     0.1410 nv         1 KUV      -1.057000
     27 N24          3.3430    -0.0720    -0.0010 nh         1 KUV      -0.842400
     28 N6           4.3300    -3.4860     0.0180 nd         1 KUV      -0.512800
     29 N7           1.0760    -1.9520    -0.1160 ns         1 KUV      -0.352100
     30 O9          -0.0070    -3.9490    -0.0180 o          1 KUV      -0.635100
     31 S12         -3.6980    -1.1930     0.0310 ss         1 KUV      -0.067400
     32 H1           6.1340    -1.3730     1.1690 h1         1 KUV       0.053700
     33 H2           6.6080    -2.4750    -0.1340 h1         1 KUV       0.053700
     34 H3           6.0690    -0.8370    -0.5180 h1         1 KUV       0.053700
     35 H4          -1.5490     4.1340    -1.8940 ha         1 KUV       0.145000
     36 H5          -3.0550     5.2560    -0.2720 ha         1 KUV       0.128000
     37 H6          -4.2960     3.9180     1.4120 ha         1 KUV       0.145000
     38 H7           4.3540     1.4040     1.0590 h1         1 KUV       0.037700
     39 H8           3.9630    -0.0130     1.9980 h1         1 KUV       0.037700
     40 H9           1.7210     0.6290     2.3450 hc         1 KUV       0.052700
     41 H10          2.6550     2.1030     2.5010 hc         1 KUV       0.052700
     42 H28          0.7340     1.2720     0.3340 h1         1 KUV       0.045700
     43 H30          3.0460     3.2050    -0.0410 h1         1 KUV       0.057700
     44 H11          1.5890     1.1710    -1.8080 hc         1 KUV       0.063200
     45 H12          2.8260     2.2790    -2.3890 hc         1 KUV       0.063200
     46 H13          3.6630    -0.0030    -2.0560 h1         1 KUV       0.038200
     47 H14          4.5630     1.2000    -1.1470 h1         1 KUV       0.038200
     48 H15          2.5640    -4.6020    -0.0680 h4         1 KUV       0.060100
     49 H16         -2.2100    -4.4670    -0.0180 hn         1 KUV       0.504000
     50 H17         -3.8690    -4.0420    -0.0450 hn         1 KUV       0.504000
     51 H18         -0.1550     3.3500     0.9430 hn         1 KUV       0.400000
     52 H19          0.2710     2.6480     2.3330 hn         1 KUV       0.400000
     53 H21          0.9400    -0.9490    -0.1400 hn         1 KUV       0.354500
     54 N34          0.6480     3.0560     1.4850 n8         1 KUV      -1.003200
@<TRIPOS>BOND
     1     1     4 1   
     2     1    17 1   
     3     1    28 1   
     4     2     5 2   
     5     2    21 1   
     6     2    25 1   
     7     3    17 2   
     8     3    20 1   
     9     3    29 1   
    10     4    32 1   
    11     4    33 1   
    12     4    34 1   
    13     5    26 1   
    14     5    31 1   
    15     6     7 1   
    16     6    25 2   
    17     6    31 1   
    18     7     8 ar  
    19     7    12 ar  
    20     8     9 ar  
    21     8    23 1   
    22     9    10 ar  
    23     9    35 1   
    24    10    11 ar  
    25    10    36 1   
    26    11    12 ar  
    27    11    37 1   
    28    12    22 1   
    29    13    14 1   
    30    13    27 1   
    31    13    38 1   
    32    13    39 1   
    33    14    15 1   
    34    14    40 1   
    35    14    41 1   
    36    15    16 1   
    37    15    42 1   
    38    15    54 1   
    39    16    18 1   
    40    16    24 1   
    41    16    43 1   
    42    17    27 1   
    43    18    19 1   
    44    18    44 1   
    45    18    45 1   
    46    19    27 1   
    47    19    46 1   
    48    19    47 1   
    49    20    28 2   
    50    20    48 1   
    51    21    29 1   
    52    21    30 2   
    53    26    49 1   
    54    26    50 1   
    55    29    53 1   
    56    51    54 1   
    57    52    54 1   
@<TRIPOS>SUBSTRUCTURE
     1 KUV         1 TEMP              0 ****  ****    0 ROOT
