@<TRIPOS>MOLECULE
KUW
   61    64     1     0     0
SMALL
No Charge or Current Charge


@<TRIPOS>ATOM
      1 C1          -5.6060     2.8570     1.8640 c3         1 KUW      -0.107600
      2 C2          -5.9680     1.9550     0.6660 c3         1 KUW       0.144700
      3 C3          -6.5710     2.7180    -0.5300 c3         1 KUW      -0.107600
      4 C7          -2.7730     0.2050    -0.4950 ce         1 KUW       0.215800
      5 C8          -3.3570    -0.9700    -0.1660 cf         1 KUW      -0.416300
      6 C9          -2.8910    -2.3640    -0.3340 ca         1 KUW       0.003200
      7 C10         -3.0590    -3.3210     0.6880 ca         1 KUW      -0.107000
      8 C11         -2.6050    -4.6400     0.5140 ca         1 KUW      -0.105000
      9 C12         -1.9810    -5.0180    -0.6860 ca         1 KUW      -0.108000
     10 C13         -1.8140    -4.0750    -1.7130 ca         1 KUW      -0.105000
     11 C14         -2.2670    -2.7560    -1.5370 ca         1 KUW      -0.107000
     12 O17         -5.9720    -1.1540    -0.4890 o          1 KUW      -0.532000
     13 N18         -1.4450     0.2370    -0.9920 nu         1 KUW      -0.759200
     14 C19         -0.6340     1.4450    -1.2270 c6         1 KUW       0.230500
     15 C20         -0.0670     1.9930     0.1060 c6         1 KUW      -0.098900
     16 C21          1.0310     1.0740     0.6860 c6         1 KUW       0.192300
     17 C24          0.5140     1.1290    -2.2140 c6         1 KUW      -0.098900
     18 N26          3.8690    -0.6430    -0.0980 nb         1 KUW      -0.732000
     19 C27          5.1180    -0.9570     0.3180 ca         1 KUW       0.330900
     20 C33          5.5000     1.2530     1.2260 ca         1 KUW      -0.041000
     21 C34          4.2070     1.5950     0.8000 ca         1 KUW       0.062000
     22 N4          -4.8690     1.0550     0.2750 n          1 KUW      -0.476200
     23 C5          -3.6340     1.4480    -0.2330 c          1 KUW       0.567200
     24 O6          -3.3240     2.6170    -0.4310 o          1 KUW      -0.492000
     25 S15         -4.9700    -0.6360     0.4500 sy         1 KUW       1.189900
     26 O16         -5.0330    -0.9520     1.8810 o          1 KUW      -0.532000
     27 N22          2.1090     0.8530    -0.3110 nh         1 KUW      -0.741300
     28 C23          1.6210     0.2510    -1.5810 c6         1 KUW       0.192300
     29 C25          3.4210     0.6070     0.1420 ca         1 KUW       0.524900
     30 C28          5.9700    -0.0520     0.9870 ca         1 KUW      -0.038300
     31 C29          7.3720    -0.4740     1.4250 c3         1 KUW      -0.191100
     32 O31          8.3650    -1.4210    -0.5030 o          1 KUW      -0.720000
     33 O32          8.8550     0.6280    -0.0540 o          1 KUW      -0.720000
     34 H1          -5.2370     2.2530     2.7010 hc         1 KUW       0.049700
     35 H2          -4.8310     3.5830     1.5930 hc         1 KUW       0.049700
     36 H3          -6.4880     3.4120     2.2070 hc         1 KUW       0.049700
     37 H4          -6.7800     1.3100     1.0310 h1         1 KUW       0.054700
     38 H5          -5.8530     3.4340    -0.9450 hc         1 KUW       0.049700
     39 H6          -6.8610     2.0200    -1.3240 hc         1 KUW       0.049700
     40 H7          -7.4650     3.2720    -0.2210 hc         1 KUW       0.049700
     41 H8          -3.5220    -3.0470     1.6320 ha         1 KUW       0.120500
     42 H9          -2.7330    -5.3690     1.3110 ha         1 KUW       0.112500
     43 H10         -1.6310    -6.0390    -0.8210 ha         1 KUW       0.111000
     44 H11         -1.3380    -4.3660    -2.6460 ha         1 KUW       0.112500
     45 H12         -2.1530    -2.0430    -2.3500 ha         1 KUW       0.120500
     46 H13         -0.9760    -0.6670    -1.0190 hn         1 KUW       0.506000
     47 H14         -1.2550     2.2240    -1.6940 h1         1 KUW       0.079700
     48 H15          0.3580     2.9900    -0.0670 hc         1 KUW       0.060950
     49 H16         -0.8700     2.1250     0.8430 hc         1 KUW       0.060950
     50 H17          1.4330     1.5340     1.6010 h1         1 KUW       0.046450
     51 H18          0.5880     0.1110     0.9800 h1         1 KUW       0.046450
     52 H19          0.1190     0.6460    -3.1180 hc         1 KUW       0.060950
     53 H20          0.9650     2.0740    -2.5470 hc         1 KUW       0.060950
     54 H21          5.4470    -1.9750     0.1100 h4         1 KUW       0.014100
     55 H22          6.1250     1.9890     1.7250 ha         1 KUW       0.145000
     56 H23          1.2330    -0.7610    -1.3960 h1         1 KUW       0.046450
     57 H24          2.4460     0.1600    -2.3040 h1         1 KUW       0.046450
     58 H25          7.2900    -1.5000     1.8050 hc         1 KUW       0.038200
     59 H26          7.7080     0.2380     2.1880 hc         1 KUW       0.038200
     60 C30          8.3140    -0.4340     0.2150 c          1 KUW       0.725000
     61 Cl1          3.6300     3.2490     1.0690 cl         1 KUW      -0.223000
@<TRIPOS>BOND
     1     1     2 1   
     2     1    34 1   
     3     1    35 1   
     4     1    36 1   
     5     2     3 1   
     6     2    22 1   
     7     2    37 1   
     8     3    38 1   
     9     3    39 1   
    10     3    40 1   
    11     4     5 2   
    12     4    13 1   
    13     4    23 1   
    14     5     6 1   
    15     5    25 1   
    16     6     7 ar  
    17     6    11 ar  
    18     7     8 ar  
    19     7    41 1   
    20     8     9 ar  
    21     8    42 1   
    22     9    10 ar  
    23     9    43 1   
    24    10    11 ar  
    25    10    44 1   
    26    11    45 1   
    27    12    25 2   
    28    13    14 1   
    29    13    46 1   
    30    14    15 1   
    31    14    17 1   
    32    14    47 1   
    33    15    16 1   
    34    15    48 1   
    35    15    49 1   
    36    16    27 1   
    37    16    50 1   
    38    16    51 1   
    39    17    28 1   
    40    17    52 1   
    41    17    53 1   
    42    18    19 ar  
    43    18    29 ar  
    44    19    30 ar  
    45    19    54 1   
    46    20    21 ar  
    47    20    30 ar  
    48    20    55 1   
    49    21    29 ar  
    50    21    61 1   
    51    22    23 1   
    52    22    25 1   
    53    23    24 2   
    54    25    26 2   
    55    27    28 1   
    56    27    29 1   
    57    28    56 1   
    58    28    57 1   
    59    30    31 1   
    60    31    58 1   
    61    31    59 1   
    62    31    60 1   
    63    32    60 1   
    64    33    60 1   
@<TRIPOS>SUBSTRUCTURE
     1 KUW         1 TEMP              0 ****  ****    0 ROOT
