@<TRIPOS>MOLECULE
KUW
   61    64     1     0     0
SMALL
bcc


@<TRIPOS>ATOM
      1 C1          -5.2150     2.8430     1.9290 c3         1 KUW      -0.107600
      2 C2          -5.7500     1.8670     0.8910 c3         1 KUW       0.144700
      3 C3          -6.5310     2.5410    -0.2270 c3         1 KUW      -0.107600
      4 C7          -2.6750     0.2610    -0.6190 ce         1 KUW       0.215800
      5 C8          -3.1840    -0.9080    -0.1570 cf         1 KUW      -0.416300
      6 C9          -2.6560    -2.2660    -0.3090 ca         1 KUW       0.003200
      7 C10         -2.4270    -3.0830     0.8000 ca         1 KUW      -0.125000
      8 C11         -1.9120    -4.3590     0.6330 ca         1 KUW      -0.123000
      9 C12         -1.6100    -4.8320    -0.6380 ca         1 KUW      -0.126000
     10 C13         -1.8350    -4.0260    -1.7460 ca         1 KUW      -0.123000
     11 C14         -2.3640    -2.7540    -1.5840 ca         1 KUW      -0.125000
     12 O17         -5.8190    -1.2490    -0.0360 o          1 KUW      -0.602800
     13 N18         -1.5330     0.3900    -1.3060 nu         1 KUW      -0.704000
     14 C19         -0.7400     1.5990    -1.5370 c6         1 KUW       0.230500
     15 C20         -0.1750     2.1770    -0.2390 c6         1 KUW      -0.098900
     16 C21          0.8860     1.2710     0.3590 c6         1 KUW       0.192300
     17 C24          0.4150     1.2440    -2.4700 c6         1 KUW      -0.098900
     18 N26          3.5750    -0.6360    -0.3940 nb         1 KUW      -0.732000
     19 C27          4.7220    -1.1020     0.0930 ca         1 KUW       0.396200
     20 C33          5.1360     0.8930     1.2760 ca         1 KUW      -0.059000
     21 C34          3.9620     1.3870     0.7520 ca         1 KUW      -0.094900
     22 N4          -4.6740     1.0170     0.3560 n          1 KUW      -0.543200
     23 C5          -3.5760     1.4390    -0.3260 c          1 KUW       0.709700
     24 O6          -3.3640     2.5810    -0.6540 o          1 KUW      -0.567500
     25 S15         -4.6920    -0.6420     0.6520 sy         1 KUW       1.331500
     26 O16         -4.6190    -0.8690     2.0870 o          1 KUW      -0.602800
     27 N22          1.9650     1.0500    -0.6010 nh         1 KUW      -0.741300
     28 C23          1.4860     0.3890    -1.8020 c6         1 KUW       0.192300
     29 C25          3.1630     0.5790    -0.0760 ca         1 KUW       0.590200
     30 C28          5.5440    -0.4020     0.9590 ca         1 KUW      -0.103600
     31 C29          6.8040    -0.9830     1.5080 c3         1 KUW      -0.191100
     32 O31          9.1620    -0.8510     1.3990 o          1 KUW      -0.825300
     33 O32          8.0030     0.7010     0.2930 o          1 KUW      -0.825300
     34 H1          -4.6480     2.3210     2.6990 hc         1 KUW       0.049700
     35 H2          -4.5790     3.6040     1.4810 hc         1 KUW       0.049700
     36 H3          -6.0530     3.3460     2.4110 hc         1 KUW       0.049700
     37 H4          -6.4310     1.1820     1.4030 h1         1 KUW       0.054700
     38 H5          -5.9240     3.2690    -0.7620 hc         1 KUW       0.049700
     39 H6          -6.9080     1.8070    -0.9390 hc         1 KUW       0.049700
     40 H7          -7.3860     3.0650     0.2000 hc         1 KUW       0.049700
     41 H8          -2.6360    -2.7170     1.7970 ha         1 KUW       0.138500
     42 H9          -1.7380    -4.9840     1.4990 ha         1 KUW       0.130500
     43 H10         -1.2020    -5.8270    -0.7650 ha         1 KUW       0.129000
     44 H11         -1.6090    -4.3900    -2.7390 ha         1 KUW       0.130500
     45 H12         -2.5660    -2.1430    -2.4560 ha         1 KUW       0.138500
     46 H13         -1.0360    -0.4800    -1.4370 hn         1 KUW       0.450800
     47 H14         -1.3680     2.3380    -2.0290 h1         1 KUW       0.079700
     48 H15          0.2690     3.1520    -0.4570 hc         1 KUW       0.060950
     49 H16         -0.9640     2.3450     0.4950 hc         1 KUW       0.060950
     50 H17          1.2740     1.7250     1.2680 h1         1 KUW       0.046450
     51 H18          0.4430     0.3090     0.6580 h1         1 KUW       0.046450
     52 H19          0.0430     0.7340    -3.3620 hc         1 KUW       0.060950
     53 H20          0.8690     2.1790    -2.8030 hc         1 KUW       0.060950
     54 H21          4.9970    -2.1040    -0.2220 h4         1 KUW       0.014100
     55 H22          5.7410     1.5160     1.9210 ha         1 KUW       0.163000
     56 H23          1.1120    -0.6240    -1.5880 h1         1 KUW       0.046450
     57 H24          2.3160     0.2590    -2.4970 h1         1 KUW       0.046450
     58 H25          6.8510    -2.0510     1.2800 hc         1 KUW       0.038200
     59 H26          6.7970    -0.9150     2.6000 hc         1 KUW       0.038200
     60 C30          8.1090    -0.3080     1.0100 c          1 KUW       0.935600
     61 CL1          3.5330     3.0360     1.0640 cl         1 KUW      -0.131400
@<TRIPOS>BOND
     1     1     2 1   
     2     1    34 1   
     3     1    35 1   
     4     1    36 1   
     5     2     3 1   
     6     2    22 1   
     7     2    37 1   
     8     3    38 1   
     9     3    39 1   
    10     3    40 1   
    11     4     5 2   
    12     4    13 1   
    13     4    23 1   
    14     5     6 1   
    15     5    25 1   
    16     6     7 ar  
    17     6    11 ar  
    18     7     8 ar  
    19     7    41 1   
    20     8     9 ar  
    21     8    42 1   
    22     9    10 ar  
    23     9    43 1   
    24    10    11 ar  
    25    10    44 1   
    26    11    45 1   
    27    12    25 2   
    28    13    14 1   
    29    13    46 1   
    30    14    15 1   
    31    14    17 1   
    32    14    47 1   
    33    15    16 1   
    34    15    48 1   
    35    15    49 1   
    36    16    27 1   
    37    16    50 1   
    38    16    51 1   
    39    17    28 1   
    40    17    52 1   
    41    17    53 1   
    42    18    19 ar  
    43    18    29 ar  
    44    19    30 ar  
    45    19    54 1   
    46    20    21 ar  
    47    20    30 ar  
    48    20    55 1   
    49    21    29 ar  
    50    21    61 1   
    51    22    23 1   
    52    22    25 1   
    53    23    24 2   
    54    25    26 2   
    55    27    28 1   
    56    27    29 1   
    57    28    56 1   
    58    28    57 1   
    59    30    31 1   
    60    31    58 1   
    61    31    59 1   
    62    31    60 1   
    63    32    60 1   
    64    33    60 1   
@<TRIPOS>SUBSTRUCTURE
     1 KUW         1 TEMP              0 ****  ****    0 ROOT
