@<TRIPOS>MOLECULE
KUX
   51    54     1     0     0
SMALL
No Charge or Current Charge


@<TRIPOS>ATOM
      1 C10        -22.8680    -8.6750     6.5700 c          1 KUX       0.664700
      2 C15        -21.1160   -11.9420     4.6240 c5         1 KUX       0.110300
      3 C20        -21.0300   -10.4420     2.8140 c5         1 KUX       0.316300
      4 C22        -20.8860    -7.9820     2.2650 ca         1 KUX       0.132500
      5 C24        -22.3170    -6.3570     1.5300 ca         1 KUX       0.188900
      6 C26        -20.1110    -5.7870     1.7430 ca         1 KUX       0.449900
      7 C28        -19.8400    -7.0970     2.1850 ca         1 KUX      -0.110600
      8 C02        -20.9590    -6.9630     6.1140 ca         1 KUX       0.179100
      9 C03        -20.5500    -5.7270     5.5830 ca         1 KUX      -0.180000
     10 C04        -21.4640    -4.8890     4.9200 ca         1 KUX       0.054000
     11 C05        -21.0490    -3.6030     4.4220 cg         1 KUX       0.311000
     12 C07        -22.7920    -5.3110     4.7640 ca         1 KUX      -0.117000
     13 C08        -23.2090    -6.5460     5.2840 ca         1 KUX      -0.029000
     14 C09        -22.3110    -7.3860     5.9870 ca         1 KUX      -0.172600
     15 C14        -20.9780   -11.9900     6.1630 c3         1 KUX       0.204600
     16 C16        -19.8190   -12.2770     3.8320 c5         1 KUX       0.096300
     17 C18        -20.2250   -11.7420     2.4280 c5         1 KUX       0.143300
     18 C30        -18.9660    -8.9430     2.8610 cc         1 KUX       0.403700
     19 N06        -20.7240    -2.5510     4.0320 n1         1 KUX      -0.428000
     20 N11        -22.0730    -9.3570     7.4220 ns         1 KUX      -0.609300
     21 N21        -20.3360    -9.1600     2.6800 na         1 KUX      -0.305300
     22 N23        -22.1470    -7.6370     1.9420 nb         1 KUX      -0.220000
     23 N25        -21.3550    -5.4100     1.4090 nb         1 KUX      -0.291000
     24 N27        -19.1380    -4.8480     1.6100 nv         1 KUX      -1.064900
     25 N29        -18.6230    -7.6780     2.5560 nd         1 KUX      -0.562100
     26 O01        -20.0150    -7.7200     6.7480 oh         1 KUX      -0.548100
     27 O13        -22.2800   -11.7400     6.7270 os         1 KUX      -0.556700
     28 O17        -19.5260   -13.6850     3.7780 oh         1 KUX      -0.703000
     29 O19        -21.0250   -12.7410     1.7780 oh         1 KUX      -0.700000
     30 O31        -21.4150   -10.5910     4.2010 os         1 KUX      -0.450000
     31 O32        -23.6930   -10.8970     8.6480 o          1 KUX      -0.536000
     32 O33        -21.1660   -11.1620     8.9280 o          1 KUX      -0.536000
     33 O34        -23.9950    -9.0600     6.2970 o          1 KUX      -0.537100
     34 S12        -22.3330   -10.8450     8.1000 s6         1 KUX       1.444500
     35 H151       -21.9430   -12.6020     4.3260 h1         1 KUX       0.109700
     36 H201       -21.9240   -10.3720     2.1810 h2         1 KUX       0.133700
     37 H241       -23.3300    -6.0600     1.2660 h5         1 KUX       0.055100
     38 H031       -19.5180    -5.4030     5.6920 ha         1 KUX       0.132000
     39 H071       -23.5100    -4.6770     4.2470 ha         1 KUX       0.139000
     40 H081       -24.2510    -6.8360     5.1570 ha         1 KUX       0.150000
     41 H142       -20.6050   -12.9750     6.4750 h1         1 KUX       0.060700
     42 H141       -20.2380   -11.2330     6.4580 h1         1 KUX       0.060700
     43 H161       -18.9630   -11.7140     4.2300 h1         1 KUX       0.047700
     44 H181       -19.3420   -11.5060     1.8170 h1         1 KUX       0.078700
     45 H301       -18.2890    -9.7220     3.1900 h5         1 KUX       0.062800
     46 H111       -21.1340    -9.0310     7.5730 hn         1 KUX       0.363500
     47 H272       -19.3320    -4.0360     1.0300 hn         1 KUX       0.509000
     48 H271       -18.1750    -5.1730     1.6380 hn         1 KUX       0.509000
     49 H011       -19.1510    -7.2590     6.6840 ho         1 KUX       0.490000
     50 H171       -18.7950   -13.8690     4.4170 ho         1 KUX       0.523000
     51 H191       -20.7120   -13.5790     2.2090 ho         1 KUX       0.534000
@<TRIPOS>BOND
     1     1    14 1   
     2     1    20 1   
     3     1    33 2   
     4     2    15 1   
     5     2    16 1   
     6     2    30 1   
     7     2    35 1   
     8     3    17 1   
     9     3    21 1   
    10     3    30 1   
    11     3    36 1   
    12     4     7 ar  
    13     4    21 1   
    14     4    22 ar  
    15     5    22 ar  
    16     5    23 ar  
    17     5    37 1   
    18     6     7 ar  
    19     6    23 ar  
    20     6    24 1   
    21     7    25 1   
    22     8     9 ar  
    23     8    14 ar  
    24     8    26 1   
    25     9    10 ar  
    26     9    38 1   
    27    10    11 1   
    28    10    12 ar  
    29    11    19 3   
    30    12    13 ar  
    31    12    39 1   
    32    13    14 ar  
    33    13    40 1   
    34    15    27 1   
    35    15    41 1   
    36    15    42 1   
    37    16    17 1   
    38    16    28 1   
    39    16    43 1   
    40    17    29 1   
    41    17    44 1   
    42    18    21 1   
    43    18    25 2   
    44    18    45 1   
    45    20    34 1   
    46    20    46 1   
    47    24    47 1   
    48    24    48 1   
    49    26    49 1   
    50    27    34 1   
    51    28    50 1   
    52    29    51 1   
    53    31    34 2   
    54    32    34 2   
@<TRIPOS>SUBSTRUCTURE
     1 KUX         1 TEMP              0 ****  ****    0 ROOT
