@<TRIPOS>MOLECULE
KUX
   51    54     1     0     0
SMALL
abcg2


@<TRIPOS>ATOM
      1 C10        -22.3420    -8.8680     6.8910 c          1 KUX       0.664700
      2 C15        -21.3630   -11.7850     4.7090 c5         1 KUX       0.110300
      3 C20        -21.5180    -9.9260     3.3130 c5         1 KUX       0.316300
      4 C22        -20.4720    -7.8260     2.4540 ca         1 KUX       0.132500
      5 C24        -21.0280    -6.3770     0.9030 ca         1 KUX       0.188900
      6 C26        -19.1070    -5.9220     2.0870 ca         1 KUX       0.449900
      7 C28        -19.3360    -7.1120     2.8020 ca         1 KUX      -0.110600
      8 C02        -21.2020    -6.7630     5.9340 ca         1 KUX       0.179100
      9 C03        -21.2610    -5.6850     5.0550 ca         1 KUX      -0.180000
     10 C04        -22.3860    -5.5000     4.2660 ca         1 KUX       0.054000
     11 C05        -22.4400    -4.3850     3.3740 cg         1 KUX       0.311000
     12 C07        -23.4640    -6.3790     4.3320 ca         1 KUX      -0.117000
     13 C08        -23.3970    -7.4380     5.2120 ca         1 KUX      -0.029000
     14 C09        -22.2800    -7.6570     6.0190 ca         1 KUX      -0.172600
     15 C14        -20.6060   -12.0710     5.9800 c3         1 KUX       0.204600
     16 C16        -20.5330   -12.0790     3.4510 c5         1 KUX       0.096300
     17 C18        -21.1820   -11.1350     2.4380 c5         1 KUX       0.143300
     18 C30        -19.3820    -8.7840     4.0890 cc         1 KUX       0.403700
     19 N06        -22.4970    -3.4850     2.6580 n1         1 KUX      -0.428000
     20 N11        -21.1570    -9.3150     7.4330 ns         1 KUX      -0.609300
     21 N21        -20.4900    -8.9020     3.2930 na         1 KUX      -0.305300
     22 N23        -21.3530    -7.5070     1.5090 nb         1 KUX      -0.220000
     23 N25        -19.9820    -5.5880     1.1320 nb         1 KUX      -0.291000
     24 N27        -18.0690    -5.1220     2.3320 nv         1 KUX      -1.064900
     25 N29        -18.6700    -7.7280     3.8270 nd         1 KUX      -0.562100
     26 O01        -20.1310    -6.9610     6.7170 oh         1 KUX      -0.548100
     27 O13        -21.4510   -11.8350     7.1290 os         1 KUX      -0.556700
     28 O17        -20.5960   -13.3990     3.0060 oh         1 KUX      -0.703000
     29 O19        -22.3980   -11.6420     1.9630 oh         1 KUX      -0.700000
     30 O31        -21.6610   -10.4000     4.6220 os         1 KUX      -0.450000
     31 O32        -22.0110   -10.8900     9.2550 o          1 KUX      -0.536000
     32 O33        -19.6160   -10.8940     8.5210 o          1 KUX      -0.536000
     33 O34        -23.3800    -9.4530     7.0900 o          1 KUX      -0.537100
     34 S12        -21.0210   -10.7690     8.2240 s6         1 KUX       1.444500
     35 H151       -22.2880   -12.3730     4.6850 h1         1 KUX       0.109700
     36 H201       -22.4390    -9.4450     2.9700 h2         1 KUX       0.133700
     37 H241       -21.6980    -6.0470     0.1170 h5         1 KUX       0.055100
     38 H031       -20.4300    -4.9930     4.9920 ha         1 KUX       0.132000
     39 H071       -24.3360    -6.2330     3.7100 ha         1 KUX       0.139000
     40 H081       -24.2280    -8.1260     5.2700 ha         1 KUX       0.150000
     41 H142       -20.3240   -13.1240     6.0130 h1         1 KUX       0.060700
     42 H141       -19.6900   -11.4770     6.0290 h1         1 KUX       0.060700
     43 H161       -19.4950   -11.7560     3.6160 h1         1 KUX       0.047700
     44 H181       -20.4990   -10.8670     1.6240 h1         1 KUX       0.078700
     45 H301       -19.1480    -9.5030     4.8580 h5         1 KUX       0.062800
     46 H111       -20.2890    -8.8110     7.2740 hn         1 KUX       0.363500
     47 H272       -17.9300    -4.2900     1.7850 hn         1 KUX       0.509000
     48 H271       -17.3830    -5.3570     3.0280 hn         1 KUX       0.509000
     49 H011       -19.4020    -6.3680     6.4910 ho         1 KUX       0.490000
     50 H171       -19.9460   -13.9290     3.4770 ho         1 KUX       0.523000
     51 H191       -22.2390   -12.5090     1.5740 ho         1 KUX       0.534000
@<TRIPOS>BOND
     1     1    14 1   
     2     1    20 1   
     3     1    33 2   
     4     2    15 1   
     5     2    16 1   
     6     2    30 1   
     7     2    35 1   
     8     3    17 1   
     9     3    21 1   
    10     3    30 1   
    11     3    36 1   
    12     4     7 ar  
    13     4    21 1   
    14     4    22 ar  
    15     5    22 ar  
    16     5    23 ar  
    17     5    37 1   
    18     6     7 ar  
    19     6    23 ar  
    20     6    24 1   
    21     7    25 1   
    22     8     9 ar  
    23     8    14 ar  
    24     8    26 1   
    25     9    10 ar  
    26     9    38 1   
    27    10    11 1   
    28    10    12 ar  
    29    11    19 3   
    30    12    13 ar  
    31    12    39 1   
    32    13    14 ar  
    33    13    40 1   
    34    15    27 1   
    35    15    41 1   
    36    15    42 1   
    37    16    17 1   
    38    16    28 1   
    39    16    43 1   
    40    17    29 1   
    41    17    44 1   
    42    18    21 1   
    43    18    25 2   
    44    18    45 1   
    45    20    34 1   
    46    20    46 1   
    47    24    47 1   
    48    24    48 1   
    49    26    49 1   
    50    27    34 1   
    51    28    50 1   
    52    29    51 1   
    53    31    34 2   
    54    32    34 2   
@<TRIPOS>SUBSTRUCTURE
     1 KUX         1 TEMP              0 ****  ****    0 ROOT
