@<TRIPOS>MOLECULE
KUY
   54    57     1     0     0
SMALL
bcc


@<TRIPOS>ATOM
      1 N2           4.9180    -1.5500    -0.0250 na         1 KUY       0.096400
      2 C10         -0.9230    -1.9010    -0.0430 cc         1 KUY       0.150800
      3 C4           2.7690    -1.9490    -0.0700 cc         1 KUY      -0.095700
      4 C1           6.2120    -0.9180     0.0520 c3         1 KUY       0.043600
      5 C11         -2.1350    -2.5580     0.0870 cd         1 KUY       0.220200
      6 C13         -2.2200    -0.1130    -0.1080 cd         1 KUY       0.468900
      7 C15         -2.5880     1.2970    -0.2220 ca         1 KUY      -0.213500
      8 C16         -2.0470     2.1100    -1.2160 ca         1 KUY       0.184400
      9 C17         -2.3210     3.4590    -1.3100 ca         1 KUY      -0.195000
     10 C18         -3.1840     4.0280    -0.3830 ca         1 KUY      -0.065000
     11 C19         -3.7610     3.2610     0.6180 ca         1 KUY      -0.195000
     12 C20         -3.4520     1.9180     0.6740 ca         1 KUY       0.184400
     13 C25          3.6440     1.2270     1.0770 c3         1 KUY       0.233800
     14 C26          2.3490     1.8210     1.6220 c3         1 KUY      -0.084400
     15 C27          1.3720     2.3710     0.5770 c3         1 KUY       0.167500
     16 C29          2.0470     3.0310    -0.6290 c3         1 KUY      -0.063400
     17 C3           3.7070    -0.9340    -0.0770 cd         1 KUY       0.056300
     18 C31          2.4600     2.0410    -1.7170 c3         1 KUY      -0.088400
     19 C32          3.6400     1.1400    -1.3830 c3         1 KUY       0.230800
     20 C5           3.5100    -3.1370    -0.0070 cc         1 KUY       0.308200
     21 C8           0.3910    -2.5450    -0.0190 c          1 KUY       0.621600
     22 F21         -3.9900     1.1660     1.6400 f          1 KUY      -0.123900
     23 F22         -1.2370     1.5570    -2.1200 f          1 KUY      -0.123900
     24 N14         -1.0140    -0.5450    -0.1550 nc         1 KUY      -0.588000
     25 N23         -2.3810    -3.8730     0.1740 nv         1 KUY      -0.807200
     26 N24          3.4700     0.4260    -0.1270 nh         1 KUY      -0.702000
     27 N6           4.8080    -2.8670     0.0240 nd         1 KUY      -0.514800
     28 N7           1.4130    -1.6740    -0.1250 ns         1 KUY      -0.417100
     29 O9           0.5370    -3.7600     0.0980 o          1 KUY      -0.637100
     30 S12         -3.4090    -1.3850     0.0710 ss         1 KUY      -0.216300
     31 H1           6.6120    -0.9750     1.0640 h1         1 KUY       0.053033
     32 H2           6.9010    -1.4050    -0.6340 h1         1 KUY       0.053033
     33 H3           6.1170     0.1270    -0.2290 h1         1 KUY       0.053033
     34 H4          -1.8780     4.0490    -2.1010 ha         1 KUY       0.160500
     35 H5          -3.4110     5.0830    -0.4440 ha         1 KUY       0.146000
     36 H6          -4.4320     3.6970     1.3450 ha         1 KUY       0.160500
     37 H7           4.3540     2.0330     0.8590 h1         1 KUY       0.035700
     38 H8           4.1130     0.6220     1.8550 h1         1 KUY       0.035700
     39 H9           1.8250     1.0750     2.2280 hc         1 KUY       0.048700
     40 H10          2.6180     2.6350     2.3010 hc         1 KUY       0.048700
     41 H28          0.7850     1.5280     0.1850 h1         1 KUY       0.034700
     42 H11          1.3320     3.7280    -1.0780 hc         1 KUY       0.041700
     43 H12          2.9000     3.6420    -0.3110 hc         1 KUY       0.041700
     44 H13          1.5950     1.4160    -1.9610 hc         1 KUY       0.047700
     45 H14          2.7110     2.5890    -2.6300 hc         1 KUY       0.047700
     46 H15          3.7700     0.4110    -2.1850 h1         1 KUY       0.034200
     47 H16          4.5590     1.7430    -1.3520 h1         1 KUY       0.034200
     48 H17          3.1640    -4.1570     0.0140 h4         1 KUY       0.058100
     49 H18         -1.5900    -4.4740     0.3420 hn         1 KUY       0.448300
     50 H19         -3.2730    -4.2040     0.5000 hn         1 KUY       0.448300
     51 H20         -0.2770     3.5650     0.6440 hn         1 KUY       0.335300
     52 H21          0.1020     2.9170     2.0710 hn         1 KUY       0.335300
     53 H23          1.1800    -0.6920    -0.2010 hn         1 KUY       0.356500
     54 N34          0.5080     3.3440     1.2460 n8         1 KUY      -0.894800
@<TRIPOS>BOND
     1     1     4 1   
     2     1    17 1   
     3     1    27 1   
     4     2     5 2   
     5     2    21 1   
     6     2    24 1   
     7     3    17 2   
     8     3    20 1   
     9     3    28 1   
    10     4    31 1   
    11     4    32 1   
    12     4    33 1   
    13     5    25 1   
    14     5    30 1   
    15     6     7 1   
    16     6    24 2   
    17     6    30 1   
    18     7     8 ar  
    19     7    12 ar  
    20     8     9 ar  
    21     8    23 1   
    22     9    10 ar  
    23     9    34 1   
    24    10    11 ar  
    25    10    35 1   
    26    11    12 ar  
    27    11    36 1   
    28    12    22 1   
    29    13    14 1   
    30    13    26 1   
    31    13    37 1   
    32    13    38 1   
    33    14    15 1   
    34    14    39 1   
    35    14    40 1   
    36    15    16 1   
    37    15    41 1   
    38    15    54 1   
    39    16    18 1   
    40    16    42 1   
    41    16    43 1   
    42    17    26 1   
    43    18    19 1   
    44    18    44 1   
    45    18    45 1   
    46    19    26 1   
    47    19    46 1   
    48    19    47 1   
    49    20    27 2   
    50    20    48 1   
    51    21    28 1   
    52    21    29 2   
    53    25    49 1   
    54    25    50 1   
    55    28    53 1   
    56    51    54 1   
    57    52    54 1   
@<TRIPOS>SUBSTRUCTURE
     1 KUY         1 TEMP              0 ****  ****    0 ROOT
