@<TRIPOS>MOLECULE
KUY
   54    57     1     0     0
SMALL
No Charge or Current Charge


@<TRIPOS>ATOM
      1 N2           5.0080    -1.5880     0.1620 na         1 KUY       0.117800
      2 C10         -0.9130    -1.7490    -0.1930 cc         1 KUY       0.085500
      3 C4           2.8240    -1.8510    -0.0090 cc         1 KUY      -0.030400
      4 C1           6.3600    -1.0120     0.1830 c3         1 KUY       0.072900
      5 C11         -2.1250    -2.4210    -0.1690 cd         1 KUY       0.279000
      6 C13         -2.2730    -0.0060    -0.3350 cd         1 KUY       0.468900
      7 C15         -2.6610     1.4000    -0.4660 ca         1 KUY      -0.213500
      8 C16         -2.1360     2.2030    -1.4970 ca         1 KUY       0.219500
      9 C17         -2.4820     3.5600    -1.5950 ca         1 KUY      -0.177000
     10 C18         -3.3540     4.1370    -0.6570 ca         1 KUY      -0.047000
     11 C19         -3.8770     3.3440     0.3770 ca         1 KUY      -0.177000
     12 C20         -3.5300     1.9870     0.4710 ca         1 KUY       0.219500
     13 C25          4.1120     1.4500     0.8340 c3         1 KUY       0.233800
     14 C26          2.9750     1.9750     1.7340 c3         1 KUY      -0.084400
     15 C27          1.5980     2.1990     1.0500 c3         1 KUY       0.167500
     16 C29          1.6520     2.8050    -0.3800 c3         1 KUY      -0.063400
     17 C3           3.7940    -0.9020    -0.0190 cd         1 KUY       0.144000
     18 C31          1.9090     1.7610    -1.5020 c3         1 KUY      -0.088400
     19 C32          3.2900     1.0730    -1.4960 c3         1 KUY       0.230800
     20 C5           3.5000    -3.0750     0.1870 cc         1 KUY       0.242900
     21 C8           0.3980    -2.4690    -0.0990 c          1 KUY       0.554600
     22 F21         -4.0260     1.2580     1.4950 f          1 KUY      -0.159000
     23 F22         -1.3210     1.6730    -2.4360 f          1 KUY      -0.159000
     24 N14         -1.0010    -0.3700    -0.2960 nc         1 KUY      -0.588000
     25 N23         -2.3560    -3.7750    -0.0830 nv         1 KUY      -1.056000
     26 N24          3.6770     0.4880    -0.1960 nh         1 KUY      -0.840400
     27 N6           4.8150    -2.9640     0.2920 nd         1 KUY      -0.514800
     28 N7           1.4620    -1.5910    -0.1310 ns         1 KUY      -0.350100
     29 O9           0.5440    -3.6840     0.0080 o          1 KUY      -0.637100
     30 S12         -3.4660    -1.2970    -0.2640 ss         1 KUY      -0.071400
     31 H1           6.6020    -0.6870     1.2020 h1         1 KUY       0.053033
     32 H2           7.0900    -1.7620    -0.1420 h1         1 KUY       0.053033
     33 H3           6.4040    -0.1510    -0.4940 h1         1 KUY       0.053033
     34 H4          -2.0750     4.1630    -2.4030 ha         1 KUY       0.142500
     35 H5          -3.6220     5.1890    -0.7320 ha         1 KUY       0.128000
     36 H6          -4.5480     3.7820     1.1120 ha         1 KUY       0.142500
     37 H7           4.5830     2.3140     0.3440 h1         1 KUY       0.035700
     38 H8           4.8810     1.0010     1.4770 h1         1 KUY       0.035700
     39 H9           2.8320     1.2600     2.5530 hc         1 KUY       0.048700
     40 H10          3.3200     2.9080     2.1950 hc         1 KUY       0.048700
     41 H28          1.1010     1.2220     0.9710 h1         1 KUY       0.034700
     42 H11          0.6920     3.2880    -0.6020 hc         1 KUY       0.041700
     43 H12          2.4120     3.5960    -0.4240 hc         1 KUY       0.041700
     44 H13          1.1350     0.9890    -1.4510 hc         1 KUY       0.047700
     45 H14          1.7800     2.2530    -2.4730 hc         1 KUY       0.047700
     46 H15          3.2900     0.2900    -2.2670 h1         1 KUY       0.034200
     47 H16          4.0440     1.8110    -1.7990 h1         1 KUY       0.034200
     48 H17          3.0640    -4.0620     0.2610 h4         1 KUY       0.058100
     49 H18         -1.5640    -4.4030     0.0680 hn         1 KUY       0.503500
     50 H19         -3.2930    -4.1380     0.0910 hn         1 KUY       0.503500
     51 H20         -0.1930     3.0730     1.5290 hn         1 KUY       0.390500
     52 H21          0.6120     2.5370     2.8170 hn         1 KUY       0.390500
     53 H23          1.1770    -0.6230    -0.2270 hn         1 KUY       0.356500
     54 N34          0.7500     3.0300     1.9290 n8         1 KUY      -1.005200
@<TRIPOS>BOND
     1     1     4 1   
     2     1    17 1   
     3     1    27 1   
     4     2     5 2   
     5     2    21 1   
     6     2    24 1   
     7     3    17 2   
     8     3    20 1   
     9     3    28 1   
    10     4    31 1   
    11     4    32 1   
    12     4    33 1   
    13     5    25 1   
    14     5    30 1   
    15     6     7 1   
    16     6    24 2   
    17     6    30 1   
    18     7     8 ar  
    19     7    12 ar  
    20     8     9 ar  
    21     8    23 1   
    22     9    10 ar  
    23     9    34 1   
    24    10    11 ar  
    25    10    35 1   
    26    11    12 ar  
    27    11    36 1   
    28    12    22 1   
    29    13    14 1   
    30    13    26 1   
    31    13    37 1   
    32    13    38 1   
    33    14    15 1   
    34    14    39 1   
    35    14    40 1   
    36    15    16 1   
    37    15    41 1   
    38    15    54 1   
    39    16    18 1   
    40    16    42 1   
    41    16    43 1   
    42    17    26 1   
    43    18    19 1   
    44    18    44 1   
    45    18    45 1   
    46    19    26 1   
    47    19    46 1   
    48    19    47 1   
    49    20    27 2   
    50    20    48 1   
    51    21    28 1   
    52    21    29 2   
    53    25    49 1   
    54    25    50 1   
    55    28    53 1   
    56    51    54 1   
    57    52    54 1   
@<TRIPOS>SUBSTRUCTURE
     1 KUY         1 TEMP              0 ****  ****    0 ROOT
