@<TRIPOS>MOLECULE
KV0
   23    24     1     0     0
SMALL
No Charge or Current Charge


@<TRIPOS>ATOM
      1 C7          93.6880    90.6440   -42.4770 cc         1 KV0       0.080000
      2 C8          92.4140    90.1710   -42.0840 cc         1 KV0      -0.222000
      3 C9          91.5080    91.1970   -42.1910 cd         1 KV0      -0.149000
      4 O1          88.7600    97.0520   -44.9610 o          1 KV0      -0.692500
      5 C1          90.4880    95.5130   -44.6040 ca         1 KV0      -0.147600
      6 C5          91.7010    93.3410   -43.2450 ca         1 KV0       0.025800
      7 C6          93.6190    91.9600   -42.8380 cd         1 KV0      -0.205000
      8 C4          91.3340    93.2170   -44.6060 ca         1 KV0       0.160000
      9 C3          90.7360    94.2980   -45.2730 ca         1 KV0      -0.030000
     10 N           92.2970    92.2920   -42.5460 na         1 KV0       0.128200
     11 C           90.8600    95.6460   -43.2530 ca         1 KV0       0.210100
     12 O           90.6660    96.8270   -42.5890 oh         1 KV0      -0.478100
     13 C10         91.4610    94.5620   -42.5770 ca         1 KV0       0.081000
     14 F           94.7780    89.8690   -42.5510 f          1 KV0      -0.180000
     15 I           91.6590    91.3840   -45.7480 i          1 KV0      -0.332000
     16 I1          92.0290    94.8040   -40.4760 i          1 KV0      -0.344000
     17 O2          90.3820    97.0170   -46.3820 o          1 KV0      -0.692500
     18 H1          92.1980    89.1450   -41.8020 ha         1 KV0       0.136000
     19 H2          90.4340    91.2400   -42.0480 h4         1 KV0       0.153000
     20 H4          94.3510    92.6440   -43.2470 h4         1 KV0       0.165000
     21 H5          90.4580    94.1890   -46.3190 ha         1 KV0       0.150000
     22 H6          90.9870    96.7120   -41.6690 ho         1 KV0       0.454000
     23 C2          89.8440    96.6420   -45.3500 c          1 KV0       0.728600
@<TRIPOS>BOND
     1     1     2 1   
     2     1     7 2   
     3     1    14 1   
     4     2     3 2   
     5     2    18 1   
     6     3    10 1   
     7     3    19 1   
     8     4    23 1   
     9     5     9 ar  
    10     5    11 ar  
    11     5    23 1   
    12     6     8 ar  
    13     6    10 1   
    14     6    13 ar  
    15     7    10 1   
    16     7    20 1   
    17     8     9 ar  
    18     8    15 1   
    19     9    21 1   
    20    11    12 1   
    21    11    13 ar  
    22    12    22 1   
    23    13    16 1   
    24    17    23 1   
@<TRIPOS>SUBSTRUCTURE
     1 KV0         1 TEMP              0 ****  ****    0 ROOT
