@<TRIPOS>MOLECULE
KV0
   23    24     1     0     0
SMALL
bcc


@<TRIPOS>ATOM
      1 C7          93.7250    90.6600   -42.2380 cc         1 KV0       0.044900
      2 C8          92.4550    90.2010   -41.8340 cc         1 KV0      -0.240000
      3 C9          91.5660    91.1520   -42.2600 cd         1 KV0      -0.116300
      4 O1          88.8260    97.2420   -44.6690 o          1 KV0      -0.797800
      5 C1          90.4780    95.5530   -44.6030 ca         1 KV0      -0.147600
      6 C5          91.6810    93.2840   -43.4710 ca         1 KV0       0.025800
      7 C6          93.6030    91.8520   -42.8880 cd         1 KV0      -0.172300
      8 C4          91.2920    93.2850   -44.8030 ca         1 KV0       0.022900
      9 C3          90.7190    94.4180   -45.3590 ca         1 KV0      -0.048000
     10 N           92.2610    92.1410   -42.8910 na         1 KV0       0.026800
     11 C           90.8690    95.5730   -43.2550 ca         1 KV0       0.210100
     12 O           90.6620    96.7010   -42.5710 oh         1 KV0      -0.439100
     13 C10         91.4810    94.4390   -42.7120 ca         1 KV0      -0.056100
     14 F           94.8740    90.0140   -42.0130 f          1 KV0      -0.144900
     15 I           91.5680    91.5770   -45.9900 i          1 KV0      -0.194900
     16 I1          92.1330    94.4420   -40.7110 i          1 KV0      -0.206900
     17 O2          90.2110    97.0270   -46.4120 o          1 KV0      -0.797800
     18 H1          92.2250    89.2920   -41.3020 ha         1 KV0       0.154000
     19 H2          90.4940    91.2030   -42.1630 h4         1 KV0       0.171000
     20 H4          94.3330    92.5050   -43.3380 h4         1 KV0       0.183000
     21 H5          90.4390    94.4250   -46.4040 ha         1 KV0       0.168000
     22 H6          90.9840    96.6440   -41.6630 ho         1 KV0       0.415000
     23 C2          89.7740    96.7360   -45.2860 c          1 KV0       0.939200
@<TRIPOS>BOND
     1     1     2 1   
     2     1     7 2   
     3     1    14 1   
     4     2     3 2   
     5     2    18 1   
     6     3    10 1   
     7     3    19 1   
     8     4    23 1   
     9     5     9 ar  
    10     5    11 ar  
    11     5    23 1   
    12     6     8 ar  
    13     6    10 1   
    14     6    13 ar  
    15     7    10 1   
    16     7    20 1   
    17     8     9 ar  
    18     8    15 1   
    19     9    21 1   
    20    11    12 1   
    21    11    13 ar  
    22    12    22 1   
    23    13    16 1   
    24    17    23 1   
@<TRIPOS>SUBSTRUCTURE
     1 KV0         1 TEMP              0 ****  ****    0 ROOT
