@<TRIPOS>MOLECULE
KV1
   59    62     1     0     0
SMALL
No Charge or Current Charge


@<TRIPOS>ATOM
      1 C1          -2.4550     6.6110     0.4830 c3         1 KV1      -0.112100
      2 N1          -2.0200     4.1760     0.3260 ns         1 KV1      -0.497900
      3 O1          -2.1610     2.6940    -1.4130 o          1 KV1      -0.595100
      4 C2          -2.5590     5.3400    -0.3750 c3         1 KV1       0.105000
      5 N2          -1.3760     0.5020     0.4270 n          1 KV1      -0.397800
      6 O2          -3.6190     0.4780     0.8160 o          1 KV1      -0.603100
      7 C3          -1.8560     2.9340    -0.2520 c          1 KV1       0.593100
      8 N3           2.1320     0.8910    -0.0820 ns         1 KV1      -0.495900
      9 O3          -2.2710    -3.8200    -0.2490 os         1 KV1      -0.164200
     10 C4          -1.2550     1.9450     0.8020 c5         1 KV1       0.033700
     11 N4           6.4420    -0.8160    -0.7550 nc         1 KV1      -0.511800
     12 C5           0.2930     2.1140     0.8620 c5         1 KV1      -0.098400
     13 N5           5.2500    -0.6780    -1.4420 na         1 KV1       0.179800
     14 C6           0.7290     1.2460    -0.3410 c5         1 KV1       0.094700
     15 C7          -0.1140    -0.0430    -0.1260 c5         1 KV1       0.091000
     16 C9          -2.7290    -1.6310     0.1780 cc         1 KV1      -0.197400
     17 C10         -1.7230    -2.5800    -0.0350 cd         1 KV1      -0.025900
     18 C11         -3.6200    -3.7190    -0.1700 ca         1 KV1       0.047100
     19 C12         -4.5640    -4.7400    -0.3210 ca         1 KV1      -0.105000
     20 C13         -5.9250    -4.3910    -0.1970 ca         1 KV1      -0.090000
     21 C14         -6.2960    -3.0500     0.0690 ca         1 KV1      -0.132000
     22 C15         -5.3140    -2.0430     0.2150 ca         1 KV1      -0.041000
     23 C16         -3.9630    -2.4130     0.0910 ca         1 KV1      -0.078800
     24 C17          2.8490     0.2660    -1.0810 c          1 KV1       0.642700
     25 C18          4.2440    -0.0560    -0.7020 cc         1 KV1      -0.223600
     26 C19          4.8540     0.2010     0.5010 cd         1 KV1      -0.202000
     27 C20          6.1760    -0.2760     0.4170 cd         1 KV1       0.249300
     28 C21          7.2180    -0.2160     1.5020 c3         1 KV1      -0.098700
     29 C22          7.0800    -1.3630     2.5220 c3         1 KV1      -0.086100
     30 H1          -2.8620     7.4710    -0.0620 hc         1 KV1       0.041700
     31 H1A         -3.0190     6.4960     1.4160 hc         1 KV1       0.041700
     32 H1B         -1.4080     6.8260     0.7310 hc         1 KV1       0.041700
     33 HN1         -1.7440     4.2780     1.2950 hn         1 KV1       0.313500
     34 H2          -3.6110     5.1500    -0.6250 h1         1 KV1       0.053200
     35 H2A         -2.0020     5.4840    -1.3100 h1         1 KV1       0.053200
     36 HN3          2.6150     1.0750     0.7870 hn         1 KV1       0.320500
     37 H4          -1.7190     2.1470     1.7770 h1         1 KV1       0.074700
     38 H5           0.6220     3.1560     0.7780 hc         1 KV1       0.062200
     39 H5A          0.6790     1.7250     1.8130 hc         1 KV1       0.062200
     40 H6           0.5420     1.7270    -1.3140 h1         1 KV1       0.114700
     41 H7           0.3620    -0.7130     0.6020 h1         1 KV1       0.056700
     42 H7A         -0.2640    -0.5740    -1.0750 h1         1 KV1       0.056700
     43 H10         -0.6410    -2.5340    -0.0280 h4         1 KV1       0.239000
     44 H12         -4.2570    -5.7620    -0.5260 ha         1 KV1       0.130000
     45 H13         -6.6920    -5.1540    -0.3070 ha         1 KV1       0.116000
     46 H14         -7.3480    -2.7900     0.1600 ha         1 KV1       0.116000
     47 H15         -5.6090    -1.0170     0.4150 ha         1 KV1       0.141000
     48 H19          4.4210     0.6800     1.3730 ha         1 KV1       0.139000
     49 H21          8.2240    -0.2460     1.0660 hc         1 KV1       0.047700
     50 H21A         7.1400     0.7410     2.0320 hc         1 KV1       0.047700
     51 H22          6.0970    -1.3320     3.0090 hc         1 KV1       0.038033
     52 H22A         7.1890    -2.3360     2.0270 hc         1 KV1       0.038033
     53 H22B         7.8510    -1.2830     3.2970 hc         1 KV1       0.038033
     54 H23          4.3590    -1.9370    -2.8770 h1         1 KV1       0.067033
     55 H23A         4.8920    -0.3430    -3.4900 h1         1 KV1       0.067033
     56 H23B         6.0970    -1.6160    -3.1390 h1         1 KV1       0.067033
     57 C8          -2.6280    -0.1660     0.4930 c          1 KV1       0.655300
     58 C23          5.1450    -1.1750    -2.8230 c3         1 KV1       0.071900
     59 O4           2.3690     0.0050    -2.1750 o          1 KV1      -0.592100
@<TRIPOS>BOND
     1     1     4 1   
     2     1    30 1   
     3     1    31 1   
     4     1    32 1   
     5     2     4 1   
     6     2     7 1   
     7     2    33 1   
     8     3     7 2   
     9     4    34 1   
    10     4    35 1   
    11     5    10 1   
    12     5    15 1   
    13     5    57 1   
    14     6    57 2   
    15     7    10 1   
    16     8    14 1   
    17     8    24 1   
    18     8    36 1   
    19     9    17 1   
    20     9    18 1   
    21    10    12 1   
    22    10    37 1   
    23    11    13 1   
    24    11    27 2   
    25    12    14 1   
    26    12    38 1   
    27    12    39 1   
    28    13    25 1   
    29    13    58 1   
    30    14    15 1   
    31    14    40 1   
    32    15    41 1   
    33    15    42 1   
    34    16    17 2   
    35    16    23 1   
    36    16    57 1   
    37    17    43 1   
    38    18    19 ar  
    39    18    23 ar  
    40    19    20 ar  
    41    19    44 1   
    42    20    21 ar  
    43    20    45 1   
    44    21    22 ar  
    45    21    46 1   
    46    22    23 ar  
    47    22    47 1   
    48    24    25 1   
    49    24    59 2   
    50    25    26 2   
    51    26    27 1   
    52    26    48 1   
    53    27    28 1   
    54    28    29 1   
    55    28    49 1   
    56    28    50 1   
    57    29    51 1   
    58    29    52 1   
    59    29    53 1   
    60    54    58 1   
    61    55    58 1   
    62    56    58 1   
@<TRIPOS>SUBSTRUCTURE
     1 KV1         1 TEMP              0 ****  ****    0 ROOT
