@<TRIPOS>MOLECULE
KV1
   59    62     1     0     0
SMALL
bcc


@<TRIPOS>ATOM
      1 C1          -3.3630     6.1490    -0.2130 c3         1 KV1      -0.112100
      2 N1          -2.3550     3.9550     0.1350 ns         1 KV1      -0.564900
      3 O1          -1.8160     2.3190    -1.3200 o          1 KV1      -0.595100
      4 C2          -2.9990     4.8160    -0.8390 c3         1 KV1       0.105000
      5 N2          -1.3230     0.6020     0.8420 n          1 KV1      -0.464800
      6 O2          -3.5400     0.8520     1.0170 o          1 KV1      -0.603100
      7 C3          -1.8280     2.7690    -0.1840 c          1 KV1       0.660100
      8 N3           2.2260     0.7490     0.1850 ns         1 KV1      -0.562900
      9 O3          -2.5860    -3.5700     0.8860 os         1 KV1      -0.164200
     10 C4          -1.1430     2.0380     0.9700 c5         1 KV1       0.033700
     11 N4           6.5120    -0.5620    -0.6980 nc         1 KV1      -0.511800
     12 C5           0.3760     2.2130     0.8950 c5         1 KV1      -0.098400
     13 N5           5.3590    -0.2940    -1.2920 na         1 KV1       0.158400
     14 C6           0.8270     1.0430     0.0290 c5         1 KV1       0.094700
     15 C7          -0.0970    -0.0910     0.4840 c5         1 KV1       0.091000
     16 C9          -2.7870    -1.3420     0.7340 cc         1 KV1      -0.197400
     17 C10         -1.9920    -2.3800     1.0930 cd         1 KV1       0.024100
     18 C11         -3.8130    -3.3180     0.3680 ca         1 KV1       0.047100
     19 C12         -4.7480    -4.2670    -0.0070 ca         1 KV1      -0.123000
     20 C13         -5.9400    -3.7810    -0.5160 ca         1 KV1      -0.108000
     21 C14         -6.1710    -2.4060    -0.6400 ca         1 KV1      -0.150000
     22 C15         -5.2210    -1.4750    -0.2580 ca         1 KV1      -0.059000
     23 C16         -4.0120    -1.9440     0.2580 ca         1 KV1      -0.078800
     24 C17          2.9690     0.1830    -0.7840 c          1 KV1       0.709700
     25 C18          4.3670    -0.0960    -0.3970 cc         1 KV1      -0.172900
     26 C19          4.9340    -0.2560     0.8540 cd         1 KV1      -0.285300
     27 C20          6.2800    -0.5500     0.6070 cd         1 KV1       0.314600
     28 C21          7.3650    -0.8340     1.5960 c3         1 KV1      -0.098700
     29 C22          8.0000    -2.2080     1.4090 c3         1 KV1      -0.086100
     30 H1          -3.8400     6.7880    -0.9550 hc         1 KV1       0.041700
     31 H1A         -4.0610     6.0220     0.6150 hc         1 KV1       0.041700
     32 H1B         -2.4790     6.6690     0.1590 hc         1 KV1       0.041700
     33 HN1         -2.4050     4.2190     1.1050 hn         1 KV1       0.313500
     34 H2          -3.8960     4.3300    -1.2320 h1         1 KV1       0.053200
     35 H2A         -2.3260     4.9700    -1.6840 h1         1 KV1       0.053200
     36 HN3          2.6520     0.9620     1.0730 hn         1 KV1       0.320500
     37 H4          -1.5290     2.3940     1.9280 h1         1 KV1       0.074700
     38 H5           0.6720     3.1830     0.4960 hc         1 KV1       0.062200
     39 H5A          0.7970     2.1230     1.9000 hc         1 KV1       0.062200
     40 H6           0.6340     1.2630    -1.0200 h1         1 KV1       0.114700
     41 H7           0.3430    -0.6010     1.3460 h1         1 KV1       0.056700
     42 H7A         -0.2640    -0.8270    -0.3020 h1         1 KV1       0.056700
     43 H10         -1.0080    -2.4210     1.5300 h4         1 KV1       0.189000
     44 H12         -4.5580    -5.3280     0.0920 ha         1 KV1       0.148000
     45 H13         -6.7080    -4.4790    -0.8240 ha         1 KV1       0.134000
     46 H14         -7.1160    -2.0650    -1.0430 ha         1 KV1       0.134000
     47 H15         -5.4160    -0.4170    -0.3540 ha         1 KV1       0.159000
     48 H19          4.4490    -0.1980     1.8150 ha         1 KV1       0.157000
     49 H21          8.1370    -0.0630     1.5220 hc         1 KV1       0.047700
     50 H21A         6.9490    -0.7510     2.6010 hc         1 KV1       0.047700
     51 H22          7.2600    -3.0020     1.5150 hc         1 KV1       0.038033
     52 H22A         8.4510    -2.3020     0.4210 hc         1 KV1       0.038033
     53 H22B         8.7810    -2.3770     2.1500 hc         1 KV1       0.038033
     54 H23          4.7840    -1.0850    -3.1530 h1         1 KV1       0.067033
     55 H23A         4.8380     0.6840    -3.0740 h1         1 KV1       0.067033
     56 H23B         6.3440    -0.2460    -3.0900 h1         1 KV1       0.067033
     57 C8          -2.5750     0.1090     0.8710 c          1 KV1       0.722300
     58 C23          5.3170    -0.2320    -2.7400 c3         1 KV1       0.042600
     59 O4           2.5340    -0.0870    -1.8940 o          1 KV1      -0.592100
@<TRIPOS>BOND
     1     1     4 1   
     2     1    30 1   
     3     1    31 1   
     4     1    32 1   
     5     2     4 1   
     6     2     7 1   
     7     2    33 1   
     8     3     7 2   
     9     4    34 1   
    10     4    35 1   
    11     5    10 1   
    12     5    15 1   
    13     5    57 1   
    14     6    57 2   
    15     7    10 1   
    16     8    14 1   
    17     8    24 1   
    18     8    36 1   
    19     9    17 1   
    20     9    18 1   
    21    10    12 1   
    22    10    37 1   
    23    11    13 1   
    24    11    27 2   
    25    12    14 1   
    26    12    38 1   
    27    12    39 1   
    28    13    25 1   
    29    13    58 1   
    30    14    15 1   
    31    14    40 1   
    32    15    41 1   
    33    15    42 1   
    34    16    17 2   
    35    16    23 1   
    36    16    57 1   
    37    17    43 1   
    38    18    19 ar  
    39    18    23 ar  
    40    19    20 ar  
    41    19    44 1   
    42    20    21 ar  
    43    20    45 1   
    44    21    22 ar  
    45    21    46 1   
    46    22    23 ar  
    47    22    47 1   
    48    24    25 1   
    49    24    59 2   
    50    25    26 2   
    51    26    27 1   
    52    26    48 1   
    53    27    28 1   
    54    28    29 1   
    55    28    49 1   
    56    28    50 1   
    57    29    51 1   
    58    29    52 1   
    59    29    53 1   
    60    54    58 1   
    61    55    58 1   
    62    56    58 1   
@<TRIPOS>SUBSTRUCTURE
     1 KV1         1 TEMP              0 ****  ****    0 ROOT
