@<TRIPOS>MOLECULE
KV3
   78    81     1     0     0
SMALL
No Charge or Current Charge


@<TRIPOS>ATOM
      1 C2          19.7910    -6.8020    54.9890 c3         1 KV3      -0.083433
      2 C3          17.2840    -7.0210    54.8610 c3         1 KV3      -0.083433
      3 C6          15.2240    -3.1190    57.0190 c3         1 KV3      -0.252400
      4 C7          15.2120    -2.8350    58.5120 c          1 KV3       0.628100
      5 C9          15.7390    -3.5910    53.6230 ca         1 KV3      -0.111000
      6 C10         15.3260    -2.7680    52.5650 ca         1 KV3      -0.099000
      7 C20         20.1240     1.9030    54.4240 ca         1 KV3      -0.151000
      8 C21         21.2970     1.3550    53.8860 ca         1 KV3      -0.071000
      9 C25         16.6140    -2.5040    61.5180 c6         1 KV3      -0.069400
     10 C26         16.3200    -2.1170    62.9970 c6         1 KV3      -0.190700
     11 C27         16.7740    -0.6570    63.2810 c6         1 KV3      -0.055400
     12 C28         16.1280     0.3380    62.2860 c6         1 KV3      -0.077400
     13 C29         16.4290    -0.0610    60.8210 c6         1 KV3      -0.076400
     14 C30         16.9320    -3.1260    64.0000 c          1 KV3       0.721000
     15 C5          16.2240    -4.2230    56.7100 c          1 KV3       0.610100
     16 N           17.0920    -4.0450    55.6030 n          1 KV3      -0.259400
     17 C4          18.3780    -4.8010    55.5720 c3         1 KV3       0.110000
     18 C1          18.4760    -6.0540    54.6400 c3         1 KV3      -0.060000
     19 C           18.5450    -5.6400    53.1440 c3         1 KV3      -0.083433
     20 C8          16.7700    -3.1850    54.4940 ca         1 KV3      -0.021000
     21 C11         15.9020    -1.5020    52.4040 ca         1 KV3       0.112000
     22 Cl          15.3750    -0.4580    51.0900 cl         1 KV3      -0.211000
     23 C12         16.8600    -1.0450    53.3200 ca         1 KV3      -0.077000
     24 C13         17.2910    -1.8670    54.3850 ca         1 KV3      -0.057300
     25 C14         18.1950    -1.2760    55.4700 c3         1 KV3       0.271900
     26 C18         19.2860    -0.3420    54.9210 ca         1 KV3      -0.148300
     27 C23         20.4670    -0.8910    54.3720 ca         1 KV3       0.148100
     28 O2          20.6050    -2.2660    54.3510 os         1 KV3      -0.343100
     29 C24         21.7520    -2.9210    53.7840 c3         1 KV3       0.148900
     30 C22         21.4690    -0.0380    53.8580 ca         1 KV3      -0.202000
     31 C19         19.1230     1.0630    54.9370 ca         1 KV3      -0.057000
     32 O1          17.3220    -0.5570    56.3700 os         1 KV3      -0.459000
     33 C15         17.7660    -0.4270    57.7330 c3         1 KV3       0.132600
     34 C16         17.5170    -1.7480    58.5150 c3         1 KV3       0.072000
     35 N17         16.1460    -1.9300    59.0970 n          1 KV3      -0.393800
     36 C17         15.9440    -1.5100    60.5230 c6         1 KV3       0.089700
     37 O4          18.1470    -3.2580    64.0270 o          1 KV3      -0.733000
     38 O3          16.1690    -3.7480    64.7240 o          1 KV3      -0.733000
     39 H1          19.7900    -7.1310    56.0360 hc         1 KV3       0.034033
     40 H2          19.9180    -7.6910    54.3590 hc         1 KV3       0.034033
     41 H3          20.6630    -6.1550    54.8390 hc         1 KV3       0.034033
     42 H4          17.2390    -7.3560    55.9040 hc         1 KV3       0.034033
     43 H5          16.3300    -6.5420    54.6160 hc         1 KV3       0.034033
     44 H6          17.3820    -7.9110    54.2280 hc         1 KV3       0.034033
     45 H7          15.4900    -2.2220    56.4630 hc         1 KV3       0.090200
     46 H8          14.2390    -3.4700    56.6970 hc         1 KV3       0.090200
     47 H9          15.2740    -4.5650    53.7500 ha         1 KV3       0.129000
     48 H10         14.5550    -3.1060    51.8770 ha         1 KV3       0.128000
     49 H11         19.9880     2.9820    54.4410 ha         1 KV3       0.116000
     50 H12         22.0710     2.0080    53.4890 ha         1 KV3       0.108000
     51 H13         16.2460    -3.5210    61.3280 hc         1 KV3       0.050700
     52 H14         17.7000    -2.5340    61.3550 hc         1 KV3       0.050700
     53 H15         15.2300    -2.1560    63.1370 hc         1 KV3       0.032700
     54 H16         17.8680    -0.5830    63.2130 hc         1 KV3       0.041700
     55 H17         16.5060    -0.3770    64.3090 hc         1 KV3       0.041700
     56 H18         16.5020     1.3520    62.4790 hc         1 KV3       0.021200
     57 H19         15.0410     0.3700    62.4460 hc         1 KV3       0.021200
     58 H20         17.5080     0.0360    60.6420 hc         1 KV3       0.021200
     59 H21         15.9270     0.6440    60.1450 hc         1 KV3       0.021200
     60 H22         18.6170    -5.1120    56.5970 h1         1 KV3       0.060200
     61 H23         19.1730    -4.1060    55.2840 h1         1 KV3       0.060200
     62 H24         17.5930    -5.2360    52.7900 hc         1 KV3       0.034033
     63 H25         19.3200    -4.8820    52.9800 hc         1 KV3       0.034033
     64 H26         18.7810    -6.5040    52.5120 hc         1 KV3       0.034033
     65 H27         17.2390    -0.0330    53.2160 ha         1 KV3       0.138000
     66 H28         18.6960    -2.0910    56.0020 h1         1 KV3       0.067700
     67 H29         21.6470    -4.0100    53.8690 h1         1 KV3       0.040367
     68 H30         21.8560    -2.6730    52.7200 h1         1 KV3       0.040367
     69 H31         22.6690    -2.6260    54.3090 h1         1 KV3       0.040367
     70 H32         22.3860    -0.4350    53.4330 ha         1 KV3       0.114000
     71 H33         18.2180     1.5130    55.3400 ha         1 KV3       0.133000
     72 H34         18.8370    -0.1850    57.7630 h1         1 KV3       0.054700
     73 H35         17.2330     0.3950    58.2250 h1         1 KV3       0.054700
     74 H36         17.7870    -2.6100    57.8980 h1         1 KV3       0.058700
     75 H37         18.2390    -1.7600    59.3400 h1         1 KV3       0.058700
     76 H38         14.8630    -1.5180    60.7280 h1         1 KV3       0.079700
     77 O           16.2850    -5.2170    57.4190 o          1 KV3      -0.566100
     78 O5          14.3550    -3.3740    59.2000 o          1 KV3      -0.593100
@<TRIPOS>BOND
     1     1    18 1   
     2     1    39 1   
     3     1    40 1   
     4     1    41 1   
     5     2    18 1   
     6     2    42 1   
     7     2    43 1   
     8     2    44 1   
     9     3     4 1   
    10     3    15 1   
    11     3    45 1   
    12     3    46 1   
    13     4    35 1   
    14     4    78 2   
    15     5     6 ar  
    16     5    20 ar  
    17     5    47 1   
    18     6    21 ar  
    19     6    48 1   
    20     7     8 ar  
    21     7    31 ar  
    22     7    49 1   
    23     8    30 ar  
    24     8    50 1   
    25     9    10 1   
    26     9    36 1   
    27     9    51 1   
    28     9    52 1   
    29    10    11 1   
    30    10    14 1   
    31    10    53 1   
    32    11    12 1   
    33    11    54 1   
    34    11    55 1   
    35    12    13 1   
    36    12    56 1   
    37    12    57 1   
    38    13    36 1   
    39    13    58 1   
    40    13    59 1   
    41    14    37 1   
    42    14    38 1   
    43    15    16 1   
    44    15    77 2   
    45    16    17 1   
    46    16    20 1   
    47    17    18 1   
    48    17    60 1   
    49    17    61 1   
    50    18    19 1   
    51    19    62 1   
    52    19    63 1   
    53    19    64 1   
    54    20    24 ar  
    55    21    22 1   
    56    21    23 ar  
    57    23    24 ar  
    58    23    65 1   
    59    24    25 1   
    60    25    26 1   
    61    25    32 1   
    62    25    66 1   
    63    26    27 ar  
    64    26    31 ar  
    65    27    28 1   
    66    27    30 ar  
    67    28    29 1   
    68    29    67 1   
    69    29    68 1   
    70    29    69 1   
    71    30    70 1   
    72    31    71 1   
    73    32    33 1   
    74    33    34 1   
    75    33    72 1   
    76    33    73 1   
    77    34    35 1   
    78    34    74 1   
    79    34    75 1   
    80    35    36 1   
    81    36    76 1   
@<TRIPOS>SUBSTRUCTURE
     1 KV3         1 TEMP              0 ****  ****    0 ROOT
