@<TRIPOS>MOLECULE
KV3
   78    81     1     0     0
SMALL
abcg2


@<TRIPOS>ATOM
      1 C2          19.7610    -6.8280    55.0330 c3         1 KV3      -0.083433
      2 C3          17.2840    -7.0240    55.2300 c3         1 KV3      -0.083433
      3 C6          15.4500    -3.0420    57.0090 c3         1 KV3      -0.252400
      4 C7          15.2490    -2.6510    58.4640 c          1 KV3       0.628100
      5 C9          15.8830    -3.5800    53.7070 ca         1 KV3      -0.111000
      6 C10         15.4830    -2.7890    52.6440 ca         1 KV3      -0.099000
      7 C20         20.2020     1.9370    54.7150 ca         1 KV3      -0.151000
      8 C21         21.2420     1.4450    53.9480 ca         1 KV3      -0.071000
      9 C25         16.5090    -2.5220    61.4840 c6         1 KV3      -0.069400
     10 C26         16.1650    -2.1260    62.9230 c6         1 KV3      -0.190700
     11 C27         16.6520    -0.7110    63.2100 c6         1 KV3      -0.055400
     12 C28         16.0950     0.2860    62.1990 c6         1 KV3      -0.077400
     13 C29         16.4610    -0.1010    60.7700 c6         1 KV3      -0.076400
     14 C30         16.6800    -3.1980    63.9130 c          1 KV3       0.721000
     15 C5          16.5410    -4.0760    56.8200 c          1 KV3       0.610100
     16 N           17.2450    -4.0220    55.6570 n          1 KV3      -0.259400
     17 C4          18.4780    -4.7990    55.5160 c3         1 KV3       0.110000
     18 C1          18.4260    -6.1330    54.7490 c3         1 KV3      -0.060000
     19 C           18.3170    -5.9130    53.2390 c3         1 KV3      -0.083433
     20 C8          16.8550    -3.1490    54.6010 ca         1 KV3      -0.021000
     21 C11         16.0740    -1.5480    52.4850 ca         1 KV3       0.112000
     22 CL          15.6100    -0.5450    51.1530 cl         1 KV3      -0.211000
     23 C12         17.0220    -1.0870    53.3830 ca         1 KV3      -0.077000
     24 C13         17.4180    -1.8770    54.4550 ca         1 KV3      -0.057300
     25 C14         18.3120    -1.2840    55.5250 c3         1 KV3       0.271900
     26 C18         19.3290    -0.3060    54.9730 ca         1 KV3      -0.148300
     27 C23         20.3810    -0.7890    54.1810 ca         1 KV3       0.148100
     28 O2          20.3770    -2.1160    53.9540 os         1 KV3      -0.343100
     29 C24         21.4190    -2.6880    53.1890 c3         1 KV3       0.148900
     30 C22         21.3370     0.0850    53.6750 ca         1 KV3      -0.202000
     31 C19         19.2500     1.0560    55.2200 ca         1 KV3      -0.057000
     32 O1          17.4300    -0.6580    56.4350 os         1 KV3      -0.459000
     33 C15         17.9000    -0.5670    57.7670 c3         1 KV3       0.132600
     34 C16         17.5920    -1.7940    58.6130 c3         1 KV3       0.072000
     35 N17         16.2220    -1.9380    59.0900 n          1 KV3      -0.393800
     36 C17         15.9630    -1.5140    60.4740 c6         1 KV3       0.089700
     37 O4          17.5020    -2.8390    64.7800 o          1 KV3      -0.733000
     38 O3          16.2250    -4.3500    63.7550 o          1 KV3      -0.733000
     39 H1          19.8820    -7.0430    56.0970 hc         1 KV3       0.034033
     40 H2          19.8230    -7.7740    54.4930 hc         1 KV3       0.034033
     41 H3          20.6070    -6.2120    54.7180 hc         1 KV3       0.034033
     42 H4          17.3580    -7.2300    56.2970 hc         1 KV3       0.034033
     43 H5          16.3080    -6.5700    55.0420 hc         1 KV3       0.034033
     44 H6          17.3060    -7.9790    54.7010 hc         1 KV3       0.034033
     45 H7          15.6130    -2.1470    56.4160 hc         1 KV3       0.090200
     46 H8          14.5100    -3.4830    56.6690 hc         1 KV3       0.090200
     47 H9          15.4350    -4.5550    53.8460 ha         1 KV3       0.129000
     48 H10         14.7280    -3.1410    51.9540 ha         1 KV3       0.128000
     49 H11         20.1240     2.9950    54.9250 ha         1 KV3       0.116000
     50 H12         21.9920     2.1160    53.5500 ha         1 KV3       0.108000
     51 H13         16.1010    -3.5100    61.2650 hc         1 KV3       0.050700
     52 H14         17.5990    -2.5960    61.3860 hc         1 KV3       0.050700
     53 H15         15.0680    -2.1240    62.9990 hc         1 KV3       0.032700
     54 H16         17.7460    -0.6850    63.1730 hc         1 KV3       0.041700
     55 H17         16.3710    -0.4080    64.2210 hc         1 KV3       0.041700
     56 H18         16.4690     1.2900    62.4110 hc         1 KV3       0.021200
     57 H19         15.0050     0.3350    62.2930 hc         1 KV3       0.021200
     58 H20         17.5480    -0.0310    60.6590 hc         1 KV3       0.021200
     59 H21         16.0210     0.6050    60.0610 hc         1 KV3       0.021200
     60 H22         18.8420    -4.9890    56.5260 h1         1 KV3       0.060200
     61 H23         19.2150    -4.1530    55.0340 h1         1 KV3       0.060200
     62 H24         17.3660    -5.4700    52.9480 hc         1 KV3       0.034033
     63 H25         19.1130    -5.2570    52.8770 hc         1 KV3       0.034033
     64 H26         18.4060    -6.8640    52.7090 hc         1 KV3       0.034033
     65 H27         17.4490    -0.1010    53.2520 ha         1 KV3       0.138000
     66 H28         18.8590    -2.0950    56.0220 h1         1 KV3       0.067700
     67 H29         21.2120    -3.7550    53.1410 h1         1 KV3       0.040367
     68 H30         21.4440    -2.2880    52.1720 h1         1 KV3       0.040367
     69 H31         22.3960    -2.5380    53.6530 h1         1 KV3       0.040367
     70 H32         22.1570    -0.2730    53.0670 ha         1 KV3       0.114000
     71 H33         18.4340     1.4440    55.8150 ha         1 KV3       0.133000
     72 H34         18.9840    -0.4080    57.7880 h1         1 KV3       0.054700
     73 H35         17.4380     0.3210    58.2010 h1         1 KV3       0.054700
     74 H36         17.9340    -2.6920    58.1020 h1         1 KV3       0.058700
     75 H37         18.2330    -1.7440    59.4930 h1         1 KV3       0.058700
     76 H38         14.8790    -1.4920    60.5860 h1         1 KV3       0.079700
     77 O           16.7730    -4.8930    57.6960 o          1 KV3      -0.566100
     78 O5          14.1870    -2.9190    59.0080 o          1 KV3      -0.593100
@<TRIPOS>BOND
     1     1    18 1   
     2     1    39 1   
     3     1    40 1   
     4     1    41 1   
     5     2    18 1   
     6     2    42 1   
     7     2    43 1   
     8     2    44 1   
     9     3     4 1   
    10     3    15 1   
    11     3    45 1   
    12     3    46 1   
    13     4    35 1   
    14     4    78 2   
    15     5     6 ar  
    16     5    20 ar  
    17     5    47 1   
    18     6    21 ar  
    19     6    48 1   
    20     7     8 ar  
    21     7    31 ar  
    22     7    49 1   
    23     8    30 ar  
    24     8    50 1   
    25     9    10 1   
    26     9    36 1   
    27     9    51 1   
    28     9    52 1   
    29    10    11 1   
    30    10    14 1   
    31    10    53 1   
    32    11    12 1   
    33    11    54 1   
    34    11    55 1   
    35    12    13 1   
    36    12    56 1   
    37    12    57 1   
    38    13    36 1   
    39    13    58 1   
    40    13    59 1   
    41    14    37 1   
    42    14    38 1   
    43    15    16 1   
    44    15    77 2   
    45    16    17 1   
    46    16    20 1   
    47    17    18 1   
    48    17    60 1   
    49    17    61 1   
    50    18    19 1   
    51    19    62 1   
    52    19    63 1   
    53    19    64 1   
    54    20    24 ar  
    55    21    22 1   
    56    21    23 ar  
    57    23    24 ar  
    58    23    65 1   
    59    24    25 1   
    60    25    26 1   
    61    25    32 1   
    62    25    66 1   
    63    26    27 ar  
    64    26    31 ar  
    65    27    28 1   
    66    27    30 ar  
    67    28    29 1   
    68    29    67 1   
    69    29    68 1   
    70    29    69 1   
    71    30    70 1   
    72    31    71 1   
    73    32    33 1   
    74    33    34 1   
    75    33    72 1   
    76    33    73 1   
    77    34    35 1   
    78    34    74 1   
    79    34    75 1   
    80    35    36 1   
    81    36    76 1   
@<TRIPOS>SUBSTRUCTURE
     1 KV3         1 TEMP              0 ****  ****    0 ROOT
