@<TRIPOS>MOLECULE
KV4
   69    73     1     0     0
SMALL
No Charge or Current Charge


@<TRIPOS>ATOM
      1 C8           5.8570     3.1600     0.0040 c5         1 KV4       0.178300
      2 C13         -1.5820     0.7260     2.1810 c3         1 KV4       0.158800
      3 C12         -0.6080     1.2080     1.0880 c3         1 KV4      -0.078400
      4 C11          0.8070     1.5060     1.6320 c3         1 KV4      -0.066400
      5 C10          1.7800     1.9910     0.5410 c3         1 KV4       0.055600
      6 C9           4.3530     2.8650    -0.2560 c3         1 KV4       0.022600
      7 C14         -3.9330     0.0100     2.5560 c3         1 KV4       0.205100
      8 C2           7.0800    -1.1770    -0.1350 ca         1 KV4       0.134500
      9 C7           6.6570     3.6040    -1.2610 c5         1 KV4       0.112300
     10 C6           6.8730     2.2290    -1.9560 c5         1 KV4       0.079300
     11 C5           7.0950     1.2780    -0.7150 c5         1 KV4       0.318300
     12 C4           5.4570    -0.5230    -1.5150 cc         1 KV4       0.409700
     13 C3           6.2830    -2.2320    -0.5010 ca         1 KV4      -0.100600
     14 N5          -2.9100     0.4680     1.6000 n7         1 KV4      -0.862400
     15 S            3.4460     2.3260     1.2670 ss         1 KV4      -0.395000
     16 O1           7.9250     4.1980    -0.9550 oh         1 KV4      -0.703000
     17 O            7.9950     2.2880    -2.8620 oh         1 KV4      -0.689000
     18 O2           6.5360     1.9560     0.4370 os         1 KV4      -0.430000
     19 N4           6.5650    -0.0870    -0.7770 na         1 KV4      -0.295300
     20 N2           8.1290    -1.3230     0.6980 nb         1 KV4      -0.213000
     21 C1           8.3450    -2.5800     1.1550 ca         1 KV4       0.179900
     22 N1           7.6210    -3.6870     0.8590 nb         1 KV4      -0.302000
     23 N3           5.2560    -1.8470    -1.3670 nd         1 KV4      -0.558100
     24 C            6.5860    -3.5070     0.0220 ca         1 KV4       0.448900
     25 N            5.8560    -4.6150    -0.2760 nv         1 KV4      -1.064900
     26 H1           5.9230     3.9170     0.7980 h1         1 KV4       0.110700
     27 H2          -1.1810    -0.1880     2.6410 h1         1 KV4       0.031200
     28 H3          -1.6500     1.4940     2.9640 h1         1 KV4       0.031200
     29 H4          -0.5370     0.4450     0.3020 hc         1 KV4       0.046700
     30 H5          -1.0110     2.1160     0.6210 hc         1 KV4       0.046700
     31 H6           0.7400     2.2690     2.4170 hc         1 KV4       0.055200
     32 H7           1.2140     0.6000     2.0990 hc         1 KV4       0.055200
     33 H8           1.8760     1.2240    -0.2390 h1         1 KV4       0.056700
     34 H9           1.3970     2.9110     0.0820 h1         1 KV4       0.056700
     35 H10          3.8760     3.7770    -0.6390 h1         1 KV4       0.062200
     36 H11          4.2460     2.0860    -1.0200 h1         1 KV4       0.062200
     37 H12         -3.6010    -0.9070     3.0630 h1         1 KV4       0.037700
     38 H13         -4.1010     0.7690     3.3320 h1         1 KV4       0.037700
     39 H15          6.0640     4.2810    -1.8930 h1         1 KV4       0.055700
     40 H16          5.9640     1.9570    -2.5070 h1         1 KV4       0.055700
     41 H17          8.1750     1.1650    -0.5520 h2         1 KV4       0.124700
     42 H18          4.8530     0.1410    -2.1200 h5         1 KV4       0.080800
     43 H19         -2.8120    -0.2570     0.8800 hn         1 KV4       0.410000
     44 H21          8.5220     3.8200    -1.6510 ho         1 KV4       0.525000
     45 H22          7.9500     1.4990    -3.4550 ho         1 KV4       0.515000
     46 H23          9.1880    -2.7150     1.8310 h5         1 KV4       0.046100
     47 H24          4.9550    -4.4580    -0.7210 hn         1 KV4       0.505000
     48 H25          5.9260    -5.4180     0.3430 hn         1 KV4       0.505000
     49 C15         -5.2490    -0.2670     1.8390 ca         1 KV4      -0.084300
     50 C16         -5.5790    -1.5730     1.4340 ca         1 KV4      -0.097000
     51 C17         -6.7960    -1.8270     0.7770 ca         1 KV4      -0.102000
     52 C18         -7.7160    -0.7830     0.5050 cp         1 KV4      -0.035000
     53 C19         -7.3650     0.5270     0.9190 ca         1 KV4      -0.102000
     54 C20         -6.1490     0.7810     1.5770 ca         1 KV4      -0.097000
     55 C21         -9.0120    -1.0540    -0.1950 cp         1 KV4      -0.029000
     56 C22         -9.5720    -0.1080    -1.0930 ca         1 KV4      -0.093000
     57 C23        -10.7880    -0.3630    -1.7510 ca         1 KV4      -0.104000
     58 C24        -11.4690    -1.5680    -1.5240 ca         1 KV4       0.121000
     59 C25        -10.9370    -2.5190    -0.6410 ca         1 KV4      -0.104000
     60 C26         -9.7200    -2.2650     0.0170 ca         1 KV4      -0.093000
     61 Cl1        -12.9910    -1.8860    -2.3460 cl         1 KV4      -0.204000
     62 H14         -4.8920    -2.3950     1.6250 ha         1 KV4       0.119500
     63 H20         -7.0200    -2.8430     0.4630 ha         1 KV4       0.115000
     64 H26         -8.0480     1.3540     0.7420 ha         1 KV4       0.115000
     65 H27         -5.9060     1.7960     1.8850 ha         1 KV4       0.119500
     66 H28         -9.0520     0.8260    -1.2930 ha         1 KV4       0.119000
     67 H29        -11.2000     0.3720    -2.4380 ha         1 KV4       0.129000
     68 H30        -11.4680    -3.4510    -0.4630 ha         1 KV4       0.129000
     69 H31         -9.3310    -3.0090     0.7070 ha         1 KV4       0.119000
@<TRIPOS>BOND
     1     1     6 1   
     2     1     9 1   
     3     1    18 1   
     4     1    26 1   
     5     2     3 1   
     6     2    14 1   
     7     2    27 1   
     8     2    28 1   
     9     3     4 1   
    10     3    29 1   
    11     3    30 1   
    12     4     5 1   
    13     4    31 1   
    14     4    32 1   
    15     5    15 1   
    16     5    33 1   
    17     5    34 1   
    18     6    15 1   
    19     6    35 1   
    20     6    36 1   
    21     7    14 1   
    22     7    37 1   
    23     7    38 1   
    24     7    49 1   
    25     8    13 ar  
    26     8    19 1   
    27     8    20 ar  
    28     9    10 1   
    29     9    16 1   
    30     9    39 1   
    31    10    11 1   
    32    10    17 1   
    33    10    40 1   
    34    11    18 1   
    35    11    19 1   
    36    11    41 1   
    37    12    19 1   
    38    12    23 2   
    39    12    42 1   
    40    13    23 1   
    41    13    24 ar  
    42    14    43 1   
    43    16    44 1   
    44    17    45 1   
    45    20    21 ar  
    46    21    22 ar  
    47    21    46 1   
    48    22    24 ar  
    49    24    25 1   
    50    25    47 1   
    51    25    48 1   
    52    49    50 ar  
    53    49    54 ar  
    54    50    51 ar  
    55    50    62 1   
    56    51    52 ar  
    57    51    63 1   
    58    52    53 ar  
    59    52    55 1   
    60    53    54 ar  
    61    53    64 1   
    62    54    65 1   
    63    55    56 ar  
    64    55    60 ar  
    65    56    57 ar  
    66    56    66 1   
    67    57    58 ar  
    68    57    67 1   
    69    58    59 ar  
    70    58    61 1   
    71    59    60 ar  
    72    59    68 1   
    73    60    69 1   
@<TRIPOS>SUBSTRUCTURE
     1 KV4         1 TEMP              0 ****  ****    0 ROOT
