@<TRIPOS>MOLECULE
KV4
   69    73     1     0     0
SMALL
bcc


@<TRIPOS>ATOM
      1 C8           5.3710     2.9420    -0.0120 c5         1 KV4       0.155100
      2 C13         -1.8690     0.2620     1.6700 c3         1 KV4       0.158800
      3 C12         -0.8960     0.8030     0.6350 c3         1 KV4      -0.078400
      4 C11          0.5090     0.9670     1.2010 c3         1 KV4      -0.066400
      5 C10          1.4760     1.5250     0.1680 c3         1 KV4       0.007700
      6 C9           4.0200     2.4290    -0.4860 c3         1 KV4      -0.025300
      7 C14         -4.1510    -0.4020     2.0850 c3         1 KV4       0.205100
      8 C2           8.0630    -0.9290    -0.0180 ca         1 KV4       0.462800
      9 C7           6.2820     3.3240    -1.1700 c5         1 KV4       0.089100
     10 C6           6.9390     1.9750    -1.4770 c5         1 KV4       0.056100
     11 C5           7.1070     1.3890    -0.0700 c5         1 KV4       0.265800
     12 C4           5.8780    -0.8170    -0.0580 cc         1 KV4       0.409700
     13 C3           7.4830    -2.1880    -0.0350 ca         1 KV4      -0.231200
     14 N5          -3.2040     0.1250     1.1210 n7         1 KV4      -0.807200
     15 S            3.1290     1.6800     0.9030 ss         1 KV4      -0.299200
     16 O1           7.2300     4.2490    -0.7090 oh         1 KV4      -0.580800
     17 O            8.1820     2.0600    -2.1060 oh         1 KV4      -0.566800
     18 O2           6.0850     1.9350     0.7100 os         1 KV4      -0.383600
     19 N4           7.0150    -0.0550    -0.0340 na         1 KV4      -0.266000
     20 N2           9.3660    -0.6590     0.0190 nb         1 KV4      -0.739000
     21 C1          10.0930    -1.7630     0.0370 ca         1 KV4       0.705900
     22 N1           9.6790    -3.0280     0.0190 nb         1 KV4      -0.828000
     23 N3           6.1160    -2.0950    -0.0560 nd         1 KV4      -0.558100
     24 C            8.3670    -3.2830    -0.0170 ca         1 KV4       0.777200
     25 N            7.9460    -4.5490    -0.0450 nv         1 KV4      -0.954500
     26 H1           5.2120     3.7840     0.6660 h1         1 KV4       0.110700
     27 H2          -1.4800    -0.6860     2.0760 h1         1 KV4       0.031200
     28 H3          -1.9190     0.9560     2.5160 h1         1 KV4       0.031200
     29 H4          -0.8630     0.1270    -0.2260 hc         1 KV4       0.046700
     30 H5          -1.2630     1.7650     0.2650 hc         1 KV4       0.046700
     31 H6           0.4800     1.6350     2.0680 hc         1 KV4       0.055200
     32 H7           0.8750     0.0010     1.5610 hc         1 KV4       0.055200
     33 H8           1.5310     0.8660    -0.7010 h1         1 KV4       0.056700
     34 H9           1.1450     2.5080    -0.1750 h1         1 KV4       0.056700
     35 H10          3.4460     3.2740    -0.8700 h1         1 KV4       0.062200
     36 H11          4.1200     1.7020    -1.2970 h1         1 KV4       0.062200
     37 H12         -3.8650    -1.3920     2.4710 h1         1 KV4       0.037700
     38 H13         -4.1530     0.2690     2.9510 h1         1 KV4       0.037700
     39 H15          5.7130     3.7110    -2.0250 h1         1 KV4       0.055700
     40 H16          6.2420     1.3530    -2.0510 h1         1 KV4       0.055700
     41 H17          8.0940     1.6440     0.3310 h2         1 KV4       0.124700
     42 H18          4.8920    -0.3740    -0.0400 h5         1 KV4       0.080800
     43 H19         -3.1710    -0.5000     0.3240 hn         1 KV4       0.354800
     44 H21          8.0030     4.1970    -1.2830 ho         1 KV4       0.426000
     45 H22          8.0460     2.1170    -3.0570 ho         1 KV4       0.416000
     46 H23         11.1680    -1.6260     0.0700 h5         1 KV4       0.046100
     47 H24          6.9660    -4.7680     0.0010 hn         1 KV4       0.449800
     48 H25          8.6050    -5.3030     0.0440 hn         1 KV4       0.449800
     49 C15         -5.5420    -0.4700     1.5170 ca         1 KV4      -0.084300
     50 C16         -6.3010    -1.6300     1.6070 ca         1 KV4      -0.115000
     51 C17         -7.5940    -1.6810     1.1050 ca         1 KV4      -0.120000
     52 C18         -8.1670    -0.5690     0.4910 cp         1 KV4      -0.035000
     53 C19         -7.3990     0.5950     0.3950 ca         1 KV4      -0.120000
     54 C20         -6.1100     0.6410     0.8950 ca         1 KV4      -0.115000
     55 C21         -9.5430    -0.6190    -0.0400 cp         1 KV4      -0.029000
     56 C22         -9.8940     0.0750    -1.1980 ca         1 KV4      -0.111000
     57 C23        -11.1850     0.0340    -1.7010 ca         1 KV4      -0.122000
     58 C24        -12.1450    -0.7140    -1.0380 ca         1 KV4       0.029400
     59 C25        -11.8290    -1.4170     0.1140 ca         1 KV4      -0.122000
     60 C26        -10.5340    -1.3620     0.6040 ca         1 KV4      -0.111000
     61 CL1        -13.7630    -0.7710    -1.6580 cl         1 KV4      -0.112400
     62 H14         -5.8780    -2.5150     2.0690 ha         1 KV4       0.137500
     63 H20         -8.1490    -2.6090     1.1720 ha         1 KV4       0.133000
     64 H26         -7.8200     1.4850    -0.0570 ha         1 KV4       0.133000
     65 H27         -5.5360     1.5560     0.8110 ha         1 KV4       0.137500
     66 H28         -9.1490     0.6470    -1.7370 ha         1 KV4       0.137000
     67 H29        -11.4330     0.5730    -2.6050 ha         1 KV4       0.147000
     68 H30        -12.5810    -1.9960     0.6310 ha         1 KV4       0.147000
     69 H31        -10.3030    -1.8960     1.5170 ha         1 KV4       0.137000
@<TRIPOS>BOND
     1     1     6 1   
     2     1     9 1   
     3     1    18 1   
     4     1    26 1   
     5     2     3 1   
     6     2    14 1   
     7     2    27 1   
     8     2    28 1   
     9     3     4 1   
    10     3    29 1   
    11     3    30 1   
    12     4     5 1   
    13     4    31 1   
    14     4    32 1   
    15     5    15 1   
    16     5    33 1   
    17     5    34 1   
    18     6    15 1   
    19     6    35 1   
    20     6    36 1   
    21     7    14 1   
    22     7    37 1   
    23     7    38 1   
    24     7    49 1   
    25     8    13 ar  
    26     8    19 1   
    27     8    20 ar  
    28     9    10 1   
    29     9    16 1   
    30     9    39 1   
    31    10    11 1   
    32    10    17 1   
    33    10    40 1   
    34    11    18 1   
    35    11    19 1   
    36    11    41 1   
    37    12    19 1   
    38    12    23 2   
    39    12    42 1   
    40    13    23 1   
    41    13    24 ar  
    42    14    43 1   
    43    16    44 1   
    44    17    45 1   
    45    20    21 ar  
    46    21    22 ar  
    47    21    46 1   
    48    22    24 ar  
    49    24    25 1   
    50    25    47 1   
    51    25    48 1   
    52    49    50 ar  
    53    49    54 ar  
    54    50    51 ar  
    55    50    62 1   
    56    51    52 ar  
    57    51    63 1   
    58    52    53 ar  
    59    52    55 1   
    60    53    54 ar  
    61    53    64 1   
    62    54    65 1   
    63    55    56 ar  
    64    55    60 ar  
    65    56    57 ar  
    66    56    66 1   
    67    57    58 ar  
    68    57    67 1   
    69    58    59 ar  
    70    58    61 1   
    71    59    60 ar  
    72    59    68 1   
    73    60    69 1   
@<TRIPOS>SUBSTRUCTURE
     1 KV4         1 TEMP              0 ****  ****    0 ROOT
