@<TRIPOS>MOLECULE
KV5
   46    49     1     0     0
SMALL
abcg2


@<TRIPOS>ATOM
      1 C4          -1.1480     1.3900    -0.0450 cc         1 KV5       0.458000
      2 C6          -2.5330     0.9300    -0.0760 ca         1 KV5      -0.122500
      3 C8          -4.1290    -0.9000    -0.0810 ca         1 KV5      -0.040000
      4 N3          -0.7750     2.6880    -0.1510 na         1 KV5      -0.288500
      5 C2           0.5830     2.7410    -0.0900 cc         1 KV5      -0.196000
      6 O5           2.6470     0.1050    -0.9320 os         1 KV5      -0.422000
      7 C5           3.9790    -0.3570    -0.9990 c6         1 KV5       0.170300
      8 C16          4.2900    -1.2120     0.2310 c6         1 KV5       0.133300
      9 C3           4.0210    -0.3950     1.4890 c6         1 KV5       0.092300
     10 C18          2.5940     0.1390     1.4710 c6         1 KV5       0.123300
     11 C1           2.3800     0.9320     0.1820 c6         1 KV5       0.164000
     12 C19          0.9900     1.4440     0.0580 cd         1 KV5       0.258300
     13 N5          -0.0930     0.6190     0.0860 nd         1 KV5      -0.654000
     14 O2           2.3360     0.9990     2.5510 oh         1 KV5      -0.711000
     15 O3           4.2440    -1.2160     2.6180 oh         1 KV5      -0.670000
     16 O4           5.6320    -1.6240     0.1640 oh         1 KV5      -0.719000
     17 C11         -3.6130     1.8470    -0.1260 ca         1 KV5      -0.108000
     18 C10         -4.9040     1.4070    -0.1540 ca         1 KV5      -0.097000
     19 C9          -5.2040     0.0250    -0.1330 ca         1 KV5      -0.033000
     20 C7          -2.8040    -0.4180    -0.0530 ca         1 KV5      -0.053000
     21 C15         -6.5320    -0.4580    -0.1630 ca         1 KV5      -0.101000
     22 C14         -6.7830    -1.8040    -0.1410 ca         1 KV5      -0.103000
     23 C13         -5.7150    -2.7260    -0.0900 ca         1 KV5      -0.110000
     24 C12         -4.4210    -2.2850    -0.0610 ca         1 KV5      -0.091000
     25 H1          -1.3770     3.4860    -0.2710 hn         1 KV5       0.353000
     26 H2           1.1300     3.6660    -0.1540 h4         1 KV5       0.160000
     27 H3           4.6740     0.5000    -1.0110 h1         1 KV5       0.054700
     28 H4           3.6090    -2.0790     0.2270 h1         1 KV5       0.058700
     29 H5           4.7100     0.4630     1.4920 h1         1 KV5       0.050700
     30 H6           1.8980    -0.7140     1.4660 h1         1 KV5       0.074700
     31 H7           3.0700     1.7920     0.1880 h1         1 KV5       0.044700
     32 H9           2.3860     0.4850     3.3640 ho         1 KV5       0.508000
     33 H10          4.7560    -0.7270     3.2670 ho         1 KV5       0.450000
     34 H11          5.8240    -2.1230     0.9650 ho         1 KV5       0.518000
     35 H14          4.0440    -0.7870    -4.1830 ho         1 KV5       0.502000
     36 H15         -3.4330     2.9150    -0.1380 ha         1 KV5       0.100000
     37 H16         -5.7160     2.1230    -0.1910 ha         1 KV5       0.113000
     38 H17         -1.9880    -1.1300    -0.0170 ha         1 KV5       0.141000
     39 H18         -7.3490     0.2520    -0.2020 ha         1 KV5       0.113000
     40 H19         -7.8020    -2.1660    -0.1640 ha         1 KV5       0.113000
     41 H20         -5.9260    -3.7870    -0.0750 ha         1 KV5       0.114000
     42 H21         -3.6020    -2.9940    -0.0220 ha         1 KV5       0.117000
     43 C17          4.1330    -1.1410    -2.2840 c3         1 KV5       0.172600
     44 O6           3.9130    -0.2800    -3.3760 oh         1 KV5      -0.710000
     45 H12          5.1380    -1.5750    -2.3070 h1         1 KV5       0.035200
     46 H13          3.4210    -1.9780    -2.2760 h1         1 KV5       0.035200
@<TRIPOS>BOND
     1     1     2 1   
     2     1     4 1   
     3     1    13 2   
     4     2    17 ar  
     5     2    20 ar  
     6     3    19 ar  
     7     3    20 ar  
     8     3    24 ar  
     9     4     5 1   
    10     4    25 1   
    11     5    12 2   
    12     5    26 1   
    13     6     7 1   
    14     6    11 1   
    15     7     8 1   
    16     7    27 1   
    17     7    43 1   
    18     8     9 1   
    19     8    16 1   
    20     8    28 1   
    21     9    10 1   
    22     9    15 1   
    23     9    29 1   
    24    10    11 1   
    25    10    14 1   
    26    10    30 1   
    27    11    12 1   
    28    11    31 1   
    29    12    13 1   
    30    14    32 1   
    31    15    33 1   
    32    16    34 1   
    33    17    18 ar  
    34    17    36 1   
    35    18    19 ar  
    36    18    37 1   
    37    19    21 ar  
    38    20    38 1   
    39    21    22 ar  
    40    21    39 1   
    41    22    23 ar  
    42    22    40 1   
    43    23    24 ar  
    44    23    41 1   
    45    24    42 1   
    46    35    44 1   
    47    43    44 1   
    48    43    45 1   
    49    43    46 1   
@<TRIPOS>SUBSTRUCTURE
     1 KV5         1 TEMP              0 ****  ****    0 ROOT
