@<TRIPOS>MOLECULE
KV5
   46    49     1     0     0
SMALL
No Charge or Current Charge


@<TRIPOS>ATOM
      1 C4          -1.2850     0.7110    -0.6390 cc         1 KV5       0.458000
      2 C6          -2.7260     0.5260    -0.4060 ca         1 KV5      -0.122500
      3 C8          -4.5530    -0.3940     0.9510 ca         1 KV5      -0.040000
      4 N3          -0.7530     1.4180    -1.6900 na         1 KV5      -0.288500
      5 C2           0.6230     1.3770    -1.5820 cc         1 KV5      -0.196000
      6 O5           3.2900     0.7160    -0.8480 os         1 KV5      -0.422000
      7 C5           4.6500     0.5170    -0.3740 c6         1 KV5       0.170300
      8 C16          4.8950    -1.0020    -0.1050 c6         1 KV5       0.133300
      9 C3           3.8310    -1.5270     0.9010 c6         1 KV5       0.092300
     10 C18          2.3990    -1.2270     0.3730 c6         1 KV5       0.123300
     11 C1           2.2610     0.3030     0.0900 c6         1 KV5       0.164000
     12 C19          0.8730     0.6340    -0.4550 cd         1 KV5       0.258300
     13 N5          -0.3180     0.2230     0.1230 nd         1 KV5      -0.654000
     14 O2           1.4110    -1.6800     1.3220 oh         1 KV5      -0.711000
     15 O3           3.9990    -2.9370     1.1310 oh         1 KV5      -0.670000
     16 O4           6.2090    -1.2630     0.4190 oh         1 KV5      -0.719000
     17 C11         -3.6880     1.0680    -1.2900 ca         1 KV5      -0.108000
     18 C10         -5.0610     0.8830    -1.0580 ca         1 KV5      -0.097000
     19 C9          -5.4990     0.1540     0.0600 ca         1 KV5      -0.033000
     20 C7          -3.1770    -0.2070     0.7160 ca         1 KV5      -0.053000
     21 C15         -6.8750    -0.0330     0.2950 ca         1 KV5      -0.101000
     22 C14         -7.3060    -0.7640     1.4150 ca         1 KV5      -0.103000
     23 C13         -6.3630    -1.3100     2.3030 ca         1 KV5      -0.110000
     24 C12         -4.9890    -1.1260     2.0730 ca         1 KV5      -0.091000
     25 H1          -1.2910     1.8850    -2.4080 hn         1 KV5       0.353000
     26 H2           1.2990     1.8560    -2.2810 h4         1 KV5       0.160000
     27 H3           4.7840     1.0800     0.5610 h1         1 KV5       0.054700
     28 H4           4.7630    -1.5400    -1.0570 h1         1 KV5       0.058700
     29 H5           3.9580    -0.9820     1.8490 h1         1 KV5       0.050700
     30 H6           2.2630    -1.7540    -0.5850 h1         1 KV5       0.074700
     31 H7           2.4100     0.8580     1.0270 h1         1 KV5       0.044700
     32 H9           0.5840    -1.1790     1.0890 ho         1 KV5       0.508000
     33 H10          3.1370    -3.2350     1.5050 ho         1 KV5       0.450000
     34 H11          6.1250    -2.1430     0.8610 ho         1 KV5       0.518000
     35 H14          6.0180     2.7400    -2.4650 ho         1 KV5       0.502000
     36 H15         -3.3820     1.6370    -2.1640 ha         1 KV5       0.100000
     37 H16         -5.7840     1.3090    -1.7500 ha         1 KV5       0.113000
     38 H17         -2.4580    -0.6340     1.4110 ha         1 KV5       0.141000
     39 H18         -7.6100     0.3870    -0.3890 ha         1 KV5       0.113000
     40 H19         -8.3690    -0.9070     1.5950 ha         1 KV5       0.113000
     41 H20         -6.6980    -1.8760     3.1700 ha         1 KV5       0.114000
     42 H21         -4.2670    -1.5520     2.7650 ha         1 KV5       0.117000
     43 C17          5.6340     1.1010    -1.4410 c3         1 KV5       0.172600
     44 O6           5.3860     2.4890    -1.7520 oh         1 KV5      -0.710000
     45 H12          6.6590     0.9820    -1.0640 h1         1 KV5       0.035200
     46 H13          5.5500     0.4910    -2.3510 h1         1 KV5       0.035200
@<TRIPOS>BOND
     1     1     2 1   
     2     1     4 1   
     3     1    13 2   
     4     2    17 ar  
     5     2    20 ar  
     6     3    19 ar  
     7     3    20 ar  
     8     3    24 ar  
     9     4     5 1   
    10     4    25 1   
    11     5    12 2   
    12     5    26 1   
    13     6     7 1   
    14     6    11 1   
    15     7     8 1   
    16     7    27 1   
    17     7    43 1   
    18     8     9 1   
    19     8    16 1   
    20     8    28 1   
    21     9    10 1   
    22     9    15 1   
    23     9    29 1   
    24    10    11 1   
    25    10    14 1   
    26    10    30 1   
    27    11    12 1   
    28    11    31 1   
    29    12    13 1   
    30    14    32 1   
    31    15    33 1   
    32    16    34 1   
    33    17    18 ar  
    34    17    36 1   
    35    18    19 ar  
    36    18    37 1   
    37    19    21 ar  
    38    20    38 1   
    39    21    22 ar  
    40    21    39 1   
    41    22    23 ar  
    42    22    40 1   
    43    23    24 ar  
    44    23    41 1   
    45    24    42 1   
    46    35    44 1   
    47    43    44 1   
    48    43    45 1   
    49    43    46 1   
@<TRIPOS>SUBSTRUCTURE
     1 KV5         1 TEMP              0 ****  ****    0 ROOT
