@<TRIPOS>MOLECULE
KV9
   59    64     1     0     0
SMALL
No Charge or Current Charge


@<TRIPOS>ATOM
      1 O01        -15.0470    -2.4320    25.5270 os         1 KV9      -0.327100
      2 O02        -16.0520    -3.1280    22.9970 os         1 KV9      -0.350100
      3 C03        -14.7570    -2.5020    23.1120 c6         1 KV9       0.119600
      4 C04        -14.1420    -2.8400    24.4820 c6         1 KV9       0.119600
      5 C05        -16.3930    -2.6970    25.3540 ca         1 KV9       0.048100
      6 C06        -16.9100    -3.0630    24.0830 ca         1 KV9       0.087100
      7 C07        -18.2900    -3.3730    23.9480 ca         1 KV9      -0.152600
      8 C08        -19.1140    -3.2650    25.0950 ca         1 KV9      -0.049000
      9 C09        -18.6180    -2.8480    26.3490 ca         1 KV9      -0.011000
     10 C10        -17.2390    -2.5850    26.4650 ca         1 KV9      -0.077000
     11 C11        -18.9490    -3.8050    22.6470 c          1 KV9       0.619700
     12 O12        -20.1300    -4.1240    22.6010 o          1 KV9      -0.611100
     13 N13        -18.1790    -3.8260    21.5120 ns         1 KV9      -0.499900
     14 C14        -18.6580    -4.1750    20.1760 c3         1 KV9       0.159300
     15 N15        -19.2490    -0.9400    18.2560 nb         1 KV9      -0.674000
     16 C16        -18.6610    -2.0030    18.8560 ca         1 KV9       0.337900
     17 C17        -19.3840    -3.0120    19.5210 ca         1 KV9      -0.147300
     18 C18        -20.7870    -2.9150    19.5690 ca         1 KV9      -0.064000
     19 C19        -21.4000    -1.8140    18.9510 ca         1 KV9      -0.156000
     20 C20        -20.5990    -0.8550    18.3080 ca         1 KV9       0.329900
     21 O21        -21.6180    -2.2120    26.3380 os         1 KV9      -0.218200
     22 C22        -22.8870    -1.9180    28.8500 c          1 KV9       0.643900
     23 C23        -23.6290    -2.1800    27.6380 cc         1 KV9      -0.507200
     24 C24        -22.9840    -2.3900    26.4420 cd         1 KV9       0.409100
     25 S25        -20.3360    -2.3860    30.0070 ss         1 KV9       0.344000
     26 C26        -21.5030    -2.2990    28.7150 cc         1 KV9      -0.366600
     27 C27        -20.9210    -2.4540    27.4980 cd         1 KV9       0.134100
     28 C28        -19.5110    -2.7090    27.5270 cd         1 KV9      -0.060000
     29 C29        -19.0460    -2.6540    28.8300 cc         1 KV9      -0.233000
     30 C30        -22.9020    -2.7950    23.9610 c6         1 KV9       0.191800
     31 C31        -23.7740    -2.5520    22.6970 c6         1 KV9       0.140600
     32 O32        -24.9860    -3.3370    22.7530 os         1 KV9      -0.451000
     33 C33        -25.7990    -3.0140    23.9040 c6         1 KV9       0.140600
     34 C34        -25.0220    -3.2790    25.2270 c6         1 KV9       0.191800
     35 N35        -23.6710    -2.6170    25.2410 nh         1 KV9      -0.678400
     36 H1         -14.1080    -2.8510    22.2970 h1         1 KV9       0.070700
     37 H2         -14.8740    -1.4130    23.0200 h1         1 KV9       0.070700
     38 H3         -13.9770    -3.9240    24.5530 h1         1 KV9       0.072700
     39 H4         -13.1770    -2.3310    24.6130 h1         1 KV9       0.072700
     40 H5         -20.1590    -3.5380    25.0070 ha         1 KV9       0.151000
     41 H6         -16.8110    -2.2730    27.4120 ha         1 KV9       0.134000
     42 H7         -17.2070    -3.5630    21.6330 hn         1 KV9       0.336500
     43 H8         -19.3240    -5.0450    20.2450 h1         1 KV9       0.060700
     44 H9         -17.7970    -4.4660    19.5590 h1         1 KV9       0.060700
     45 H10        -17.5730    -2.0450    18.8010 h4         1 KV9       0.018100
     46 H11        -21.3850    -3.6720    20.0750 ha         1 KV9       0.122000
     47 H12        -22.4800    -1.6990    18.9640 ha         1 KV9       0.128000
     48 H13        -21.0500     0.0080    17.8200 h4         1 KV9       0.020100
     49 H14        -24.7010    -2.1200    27.7350 ha         1 KV9       0.210000
     50 H15        -18.0380    -2.7660    29.2030 h4         1 KV9       0.156000
     51 H16        -22.4930    -3.8150    23.9150 h1         1 KV9       0.067700
     52 H17        -22.0480    -2.1040    23.9150 h1         1 KV9       0.067700
     53 H18        -23.2070    -2.8260    21.7960 h1         1 KV9       0.059450
     54 H19        -24.0350    -1.4870    22.6240 h1         1 KV9       0.059450
     55 H20        -26.0950    -1.9560    23.8530 h1         1 KV9       0.059450
     56 H21        -26.7130    -3.6230    23.8820 h1         1 KV9       0.059450
     57 H22        -25.6550    -2.9290    26.0520 h1         1 KV9       0.067700
     58 H23        -24.9030    -4.3640    25.3550 h1         1 KV9       0.067700
     59 O36        -23.4080    -1.5680    29.8960 o          1 KV9      -0.577100
@<TRIPOS>BOND
     1     1     4 1   
     2     1     5 1   
     3     2     3 1   
     4     2     6 1   
     5     3     4 1   
     6     3    36 1   
     7     3    37 1   
     8     4    38 1   
     9     4    39 1   
    10     5     6 ar  
    11     5    10 ar  
    12     6     7 ar  
    13     7     8 ar  
    14     7    11 1   
    15     8     9 ar  
    16     8    40 1   
    17     9    10 ar  
    18     9    28 1   
    19    10    41 1   
    20    11    12 2   
    21    11    13 1   
    22    13    14 1   
    23    13    42 1   
    24    14    17 1   
    25    14    43 1   
    26    14    44 1   
    27    15    16 ar  
    28    15    20 ar  
    29    16    17 ar  
    30    16    45 1   
    31    17    18 ar  
    32    18    19 ar  
    33    18    46 1   
    34    19    20 ar  
    35    19    47 1   
    36    20    48 1   
    37    21    24 1   
    38    21    27 1   
    39    22    23 1   
    40    22    26 1   
    41    22    59 2   
    42    23    24 2   
    43    23    49 1   
    44    24    35 1   
    45    25    26 1   
    46    25    29 1   
    47    26    27 2   
    48    27    28 1   
    49    28    29 2   
    50    29    50 1   
    51    30    31 1   
    52    30    35 1   
    53    30    51 1   
    54    30    52 1   
    55    31    32 1   
    56    31    53 1   
    57    31    54 1   
    58    32    33 1   
    59    33    34 1   
    60    33    55 1   
    61    33    56 1   
    62    34    35 1   
    63    34    57 1   
    64    34    58 1   
@<TRIPOS>SUBSTRUCTURE
     1 KV9         1 TEMP              0 ****  ****    0 ROOT
