@<TRIPOS>MOLECULE
KV9
   59    64     1     0     0
SMALL
bcc


@<TRIPOS>ATOM
      1 O01        -15.0440    -2.3260    25.5850 os         1 KV9      -0.303900
      2 O02        -15.9220    -3.1360    23.0460 os         1 KV9      -0.326900
      3 C03        -14.7260    -2.3810    23.2130 c6         1 KV9       0.096400
      4 C04        -14.1250    -2.6780    24.5620 c6         1 KV9       0.096400
      5 C05        -16.3140    -2.7330    25.3720 ca         1 KV9       0.048100
      6 C06        -16.7550    -3.1500    24.1070 ca         1 KV9       0.087100
      7 C07        -18.0720    -3.5920    23.9510 ca         1 KV9      -0.152600
      8 C08        -18.9140    -3.6090    25.0590 ca         1 KV9      -0.067000
      9 C09        -18.5070    -3.1300    26.2970 ca         1 KV9      -0.011000
     10 C10        -17.1910    -2.7000    26.4420 ca         1 KV9      -0.095000
     11 C11        -18.7090    -4.0160    22.6570 c          1 KV9       0.686700
     12 O12        -19.7480    -4.6620    22.6650 o          1 KV9      -0.611100
     13 N13        -18.1480    -3.6030    21.5090 ns         1 KV9      -0.566900
     14 C14        -18.7930    -3.8350    20.2410 c3         1 KV9       0.159300
     15 N15        -21.2820    -1.0000    20.4300 nb         1 KV9      -0.674000
     16 C16        -20.2090    -1.7620    20.6080 ca         1 KV9       0.403200
     17 C17        -20.0470    -3.0200    20.0370 ca         1 KV9      -0.212600
     18 C18        -21.0770    -3.4900    19.2320 ca         1 KV9      -0.082000
     19 C19        -22.2000    -2.7030    19.0340 ca         1 KV9      -0.239300
     20 C20        -22.2570    -1.4650    19.6570 ca         1 KV9       0.395200
     21 O21        -21.4290    -2.5030    26.1430 os         1 KV9      -0.218200
     22 C22        -22.9140    -2.3450    28.5670 c          1 KV9       0.643900
     23 C23        -23.4850    -2.1310    27.2700 cc         1 KV9      -0.457200
     24 C24        -22.7440    -2.2370    26.1130 cd         1 KV9       0.409100
     25 S25        -20.4510    -3.0180    29.8120 ss         1 KV9       0.054200
     26 C26        -21.5020    -2.6830    28.5010 cc         1 KV9      -0.221700
     27 C27        -20.8280    -2.7430    27.3200 cd         1 KV9       0.134100
     28 C28        -19.4430    -3.0580    27.4270 cd         1 KV9      -0.060000
     29 C29        -19.1270    -3.2320    28.7460 cc         1 KV9      -0.106100
     30 C30        -22.4110    -2.2330    23.6620 c6         1 KV9       0.191800
     31 C31        -22.9700    -3.3580    22.8060 c6         1 KV9       0.117400
     32 O32        -24.3850    -3.3070    22.6980 os         1 KV9      -0.404600
     33 C33        -24.9520    -2.1120    23.1740 c6         1 KV9       0.117400
     34 C34        -24.6430    -1.9170    24.6500 c6         1 KV9       0.191800
     35 N35        -23.2140    -2.0990    24.8690 nh         1 KV9      -0.678400
     36 H1         -14.0500    -2.6790    22.4140 h1         1 KV9       0.070700
     37 H2         -14.9440    -1.3140    23.1100 h1         1 KV9       0.070700
     38 H3         -13.8580    -3.7370    24.6410 h1         1 KV9       0.072700
     39 H4         -13.2270    -2.0820    24.7180 h1         1 KV9       0.072700
     40 H5         -19.9080    -4.0060    24.9250 ha         1 KV9       0.169000
     41 H6         -16.8320    -2.3210    27.3920 ha         1 KV9       0.152000
     42 H7         -17.2920    -3.0740    21.5260 hn         1 KV9       0.336500
     43 H8         -19.0270    -4.8950    20.1200 h1         1 KV9       0.060700
     44 H9         -18.0670    -3.5880    19.4650 h1         1 KV9       0.060700
     45 H10        -19.4340    -1.3510    21.2460 h4         1 KV9       0.018100
     46 H11        -21.0040    -4.4670    18.7680 ha         1 KV9       0.140000
     47 H12        -23.0200    -3.0430    18.4170 ha         1 KV9       0.146000
     48 H13        -23.1240    -0.8260    19.5310 h4         1 KV9       0.020100
     49 H14        -24.5320    -1.8760    27.2090 ha         1 KV9       0.160000
     50 H15        -18.1600    -3.4970    29.1480 h4         1 KV9       0.174000
     51 H16        -21.3740    -2.4540    23.8930 h1         1 KV9       0.067700
     52 H17        -22.4100    -1.2850    23.1200 h1         1 KV9       0.067700
     53 H18        -22.7030    -4.3210    23.2510 h1         1 KV9       0.059450
     54 H19        -22.5080    -3.3150    21.8160 h1         1 KV9       0.059450
     55 H20        -24.6300    -1.2420    22.5890 h1         1 KV9       0.059450
     56 H21        -26.0330    -2.1920    23.0530 h1         1 KV9       0.059450
     57 H22        -24.9700    -0.9230    24.9710 h1         1 KV9       0.067700
     58 H23        -25.1960    -2.6540    25.2370 h1         1 KV9       0.067700
     59 O36        -23.5210    -2.2610    29.6350 o          1 KV9      -0.577100
@<TRIPOS>BOND
     1     1     4 1   
     2     1     5 1   
     3     2     3 1   
     4     2     6 1   
     5     3     4 1   
     6     3    36 1   
     7     3    37 1   
     8     4    38 1   
     9     4    39 1   
    10     5     6 ar  
    11     5    10 ar  
    12     6     7 ar  
    13     7     8 ar  
    14     7    11 1   
    15     8     9 ar  
    16     8    40 1   
    17     9    10 ar  
    18     9    28 1   
    19    10    41 1   
    20    11    12 2   
    21    11    13 1   
    22    13    14 1   
    23    13    42 1   
    24    14    17 1   
    25    14    43 1   
    26    14    44 1   
    27    15    16 ar  
    28    15    20 ar  
    29    16    17 ar  
    30    16    45 1   
    31    17    18 ar  
    32    18    19 ar  
    33    18    46 1   
    34    19    20 ar  
    35    19    47 1   
    36    20    48 1   
    37    21    24 1   
    38    21    27 1   
    39    22    23 1   
    40    22    26 1   
    41    22    59 2   
    42    23    24 2   
    43    23    49 1   
    44    24    35 1   
    45    25    26 1   
    46    25    29 1   
    47    26    27 2   
    48    27    28 1   
    49    28    29 2   
    50    29    50 1   
    51    30    31 1   
    52    30    35 1   
    53    30    51 1   
    54    30    52 1   
    55    31    32 1   
    56    31    53 1   
    57    31    54 1   
    58    32    33 1   
    59    33    34 1   
    60    33    55 1   
    61    33    56 1   
    62    34    35 1   
    63    34    57 1   
    64    34    58 1   
@<TRIPOS>SUBSTRUCTURE
     1 KV9         1 TEMP              0 ****  ****    0 ROOT
