@<TRIPOS>MOLECULE
KVA
   23    24     1     0     0
SMALL
abcg2


@<TRIPOS>ATOM
      1 C7          93.9210    90.6240   -42.2960 cc         1 KVA       0.053500
      2 C8          93.7960    91.8050   -42.9670 cd         1 KVA      -0.181000
      3 C9          91.6700    94.3620   -42.8580 ca         1 KVA       0.071000
      4 O1          90.0740    97.8050   -44.9400 o          1 KVA      -0.691000
      5 C1          90.7100    95.5090   -44.7590 ca         1 KVA      -0.158600
      6 C5          91.7300    91.0830   -42.4340 cd         1 KVA      -0.181000
      7 C6          92.6290    90.1720   -41.9630 cc         1 KVA       0.053500
      8 C4          91.8930    93.2210   -43.6270 ca         1 KVA       0.025800
      9 C3          91.5290    93.2350   -44.9650 ca         1 KVA       0.156000
     10 C2          90.9400    94.3630   -45.5060 ca         1 KVA      -0.026000
     11 N           92.4560    92.0690   -43.0450 na         1 KVA       0.136200
     12 O           89.5730    96.4180   -46.6100 o          1 KVA      -0.691000
     13 C10         91.0840    95.5160   -43.4010 ca         1 KVA       0.216100
     14 F           92.3460    89.0520   -41.2990 f          1 KVA      -0.164000
     15 F1          95.0600    89.9970   -42.0000 f          1 KVA      -0.164000
     16 I           91.8530    91.5500   -46.1720 i          1 KVA      -0.329000
     17 O2          90.8490    96.6060   -42.6710 oh         1 KVA      -0.465100
     18 H1          94.5360    92.4650   -43.3880 h4         1 KVA       0.169000
     19 H3          90.6540    91.1010   -42.4000 h4         1 KVA       0.169000
     20 H4          90.6390    94.3780   -46.5430 ha         1 KVA       0.165000
     21 H5          91.0500    96.4660   -41.7370 ho         1 KVA       0.452000
     22 C           90.0530    96.6990   -45.4960 c          1 KVA       0.723600
     23 I1          92.2570    94.3180   -40.8360 i          1 KVA      -0.341000
@<TRIPOS>BOND
     1     1     2 2   
     2     1     7 1   
     3     1    15 1   
     4     2    11 1   
     5     2    18 1   
     6     3     8 ar  
     7     3    13 ar  
     8     3    23 1   
     9     4    22 1   
    10     5    10 ar  
    11     5    13 ar  
    12     5    22 1   
    13     6     7 2   
    14     6    11 1   
    15     6    19 1   
    16     7    14 1   
    17     8     9 ar  
    18     8    11 1   
    19     9    10 ar  
    20     9    16 1   
    21    10    20 1   
    22    12    22 1   
    23    13    17 1   
    24    17    21 1   
@<TRIPOS>SUBSTRUCTURE
     1 KVA         1 TEMP              0 ****  ****    0 ROOT
