@<TRIPOS>MOLECULE
KVA
   23    24     1     0     0
SMALL
No Charge or Current Charge


@<TRIPOS>ATOM
      1 C7          93.9030    90.8480   -42.1400 cc         1 KVA       0.053500
      2 C8          93.8040    91.8750   -43.0390 cd         1 KVA      -0.181000
      3 C9          91.6500    94.1800   -42.9240 ca         1 KVA       0.071000
      4 O1          90.7630    97.7670   -45.2760 o          1 KVA      -0.691000
      5 C1          90.7240    95.4790   -44.7790 ca         1 KVA      -0.158600
      6 C5          91.6700    91.0410   -42.5500 cd         1 KVA      -0.181000
      7 C6          92.6130    90.3440   -41.8440 cc         1 KVA       0.053500
      8 C4          91.8750    93.0840   -43.7940 ca         1 KVA       0.025800
      9 C3          91.5120    93.1980   -45.1510 ca         1 KVA       0.156000
     10 C2          90.9400    94.3830   -45.6370 ca         1 KVA      -0.026000
     11 N           92.4410    91.8920   -43.3440 na         1 KVA       0.136200
     12 O           89.0490    96.6280   -45.9190 o          1 KVA      -0.691000
     13 C10         91.0730    95.3720   -43.4190 ca         1 KVA       0.216100
     14 F           92.3650    89.3800   -40.9450 f          1 KVA      -0.164000
     15 F1          95.0330    90.4230   -41.5560 f          1 KVA      -0.164000
     16 I           91.8240    91.5490   -46.5410 i          1 KVA      -0.329000
     17 O2          90.8360    96.4090   -42.5580 oh         1 KVA      -0.465100
     18 H1          94.5380    92.5500   -43.4600 h4         1 KVA       0.169000
     19 H3          90.5880    91.0050   -42.5550 h4         1 KVA       0.169000
     20 H4          90.6680    94.4510   -46.6880 ha         1 KVA       0.165000
     21 H5          91.1490    96.1380   -41.6680 ho         1 KVA       0.452000
     22 C           90.1150    96.7320   -45.3320 c          1 KVA       0.723600
     23 I1          92.1660    94.0850   -40.7940 i          1 KVA      -0.341000
@<TRIPOS>BOND
     1     1     2 2   
     2     1     7 1   
     3     1    15 1   
     4     2    11 1   
     5     2    18 1   
     6     3     8 ar  
     7     3    13 ar  
     8     3    23 1   
     9     4    22 1   
    10     5    10 ar  
    11     5    13 ar  
    12     5    22 1   
    13     6     7 2   
    14     6    11 1   
    15     6    19 1   
    16     7    14 1   
    17     8     9 ar  
    18     8    11 1   
    19     9    10 ar  
    20     9    16 1   
    21    10    20 1   
    22    12    22 1   
    23    13    17 1   
    24    17    21 1   
@<TRIPOS>SUBSTRUCTURE
     1 KVA         1 TEMP              0 ****  ****    0 ROOT
