@<TRIPOS>MOLECULE
KVB
   62    66     1     0     0
SMALL
No Charge or Current Charge


@<TRIPOS>ATOM
      1 C7           1.2490     3.1630     1.3610 ca         1 KVB      -0.096000
      2 C8           1.0800     3.5140     0.0110 ca         1 KVB      -0.107500
      3 C9          -0.1980     3.4700    -0.5730 ca         1 KVB      -0.103500
      4 C10         -1.3160     3.0680     0.1870 ca         1 KVB      -0.086300
      5 C11         -2.6970     2.9810    -0.4560 c3         1 KVB       0.025200
      6 C14          8.8710    -0.4150     1.8910 c          1 KVB       0.726000
      7 C15          7.4960    -0.8620     2.4040 c3         1 KVB      -0.197100
      8 C16          5.1440    -1.2460    -0.6090 ca         1 KVB      -0.088500
      9 C19          5.7620     0.6730     1.3450 ca         1 KVB      -0.116500
     10 C20          4.7840     0.9480     0.3730 ca         1 KVB      -0.088500
     11 C21          4.4700    -0.0100    -0.6100 ca         1 KVB      -0.148300
     12 C22          3.4090     0.2920    -1.6590 c3         1 KVB       0.220900
     13 C24         -0.2580     0.2040    -1.0470 ca         1 KVB      -0.130000
     14 C27         -0.2980     1.0540    -3.7200 ca         1 KVB      -0.078000
     15 C30         -3.4290    -0.8070    -0.6510 ca         1 KVB      -0.077000
     16 C31         -2.7630     0.4310    -0.8710 cp         1 KVB       0.036000
     17 C32         -3.3310     1.5970    -0.3000 ca         1 KVB      -0.124300
     18 C33         -4.5140     1.4680     0.4430 ca         1 KVB       0.370900
     19 C35         -4.6270    -0.8420     0.1180 ca         1 KVB       0.300000
     20 C5          -1.1400     2.7240     1.5430 ca         1 KVB      -0.103500
     21 C6           0.1380     2.7710     2.1270 ca         1 KVB      -0.107500
     22 O12          9.2070     0.7450     2.0820 o          1 KVB      -0.723500
     23 O13          9.5180    -1.2030     1.2180 o          1 KVB      -0.723500
     24 C17          6.1220    -1.5190     0.3630 ca         1 KVB      -0.116500
     25 C18          6.4380    -0.5620     1.3470 ca         1 KVB       0.027700
     26 C25          0.9490     0.3330    -1.7500 ca         1 KVB       0.163100
     27 C26          0.9270     0.7570    -3.0980 ca         1 KVB      -0.198000
     28 C28         -1.4980     0.9380    -3.0010 ca         1 KVB      -0.149000
     29 C29         -1.4960     0.5150    -1.6530 cp         1 KVB      -0.025000
     30 N34         -5.1430     0.2920     0.6470 nb         1 KVB      -0.667000
     31 C36         -5.2820    -2.0860     0.3300 ca         1 KVB      -0.182300
     32 C37         -4.7350    -3.2650    -0.2280 ca         1 KVB      -0.040000
     33 C38         -3.5600    -3.2180    -0.9840 ca         1 KVB      -0.133000
     34 C39         -2.9090    -1.9990    -1.1970 ca         1 KVB      -0.044000
     35 H1           2.2390     3.1940     1.8120 ha         1 KVB       0.121000
     36 H2           1.9390     3.8140    -0.5850 ha         1 KVB       0.114000
     37 H3          -0.3150     3.7310    -1.6220 ha         1 KVB       0.108000
     38 H4          -3.3430     3.7500    -0.0150 hc         1 KVB       0.053200
     39 H5          -2.6380     3.2320    -1.5220 hc         1 KVB       0.053200
     40 H6           7.4890    -1.9460     2.5690 hc         1 KVB       0.034700
     41 H7           7.2250    -0.2930     3.3020 hc         1 KVB       0.034700
     42 H8           4.9100    -1.9970    -1.3600 ha         1 KVB       0.090500
     43 H9           5.9950     1.4230     2.0970 ha         1 KVB       0.113000
     44 H10          4.2690     1.9050     0.3850 ha         1 KVB       0.090500
     45 H11          3.5030     1.3390    -1.9750 h1         1 KVB       0.031200
     46 H12          3.5610    -0.3480    -2.5380 h1         1 KVB       0.031200
     47 H13         -0.2350    -0.1070    -0.0060 ha         1 KVB       0.137000
     48 H14         -0.3160     1.3820    -4.7570 ha         1 KVB       0.106000
     49 H15         -4.9810     2.3400     0.9000 h4         1 KVB       0.020100
     50 H16         -1.9920     2.4120     2.1420 ha         1 KVB       0.108000
     51 H17          0.2680     2.4990     3.1720 ha         1 KVB       0.114000
     52 H19          6.6360    -2.4770     0.3510 ha         1 KVB       0.113000
     53 H20          1.8430     0.8620    -3.6720 ha         1 KVB       0.121000
     54 H21         -2.4410     1.1840    -3.4850 ha         1 KVB       0.111000
     55 H22         -5.2160    -4.2300    -0.0820 ha         1 KVB       0.130000
     56 H23         -3.1510    -4.1330    -1.4090 ha         1 KVB       0.123000
     57 H24         -1.9990    -1.9940    -1.7930 ha         1 KVB       0.135000
     58 C4          -6.5780    -2.1650     1.1580 c3         1 KVB       0.370300
     59 O23          2.1190     0.0550    -1.0770 os         1 KVB      -0.334100
     60 F1          -7.0650    -3.4240     1.2580 f          1 KVB      -0.113667
     61 F2          -7.5720    -1.4220     0.6170 f          1 KVB      -0.113667
     62 F3          -6.3970    -1.7320     2.4270 f          1 KVB      -0.113667
@<TRIPOS>BOND
     1     1     2 ar  
     2     1    21 ar  
     3     1    35 1   
     4     2     3 ar  
     5     2    36 1   
     6     3     4 ar  
     7     3    37 1   
     8     4     5 1   
     9     4    20 ar  
    10     5    17 1   
    11     5    38 1   
    12     5    39 1   
    13     6     7 1   
    14     6    22 1   
    15     6    23 1   
    16     7    25 1   
    17     7    40 1   
    18     7    41 1   
    19     8    11 ar  
    20     8    24 ar  
    21     8    42 1   
    22     9    10 ar  
    23     9    25 ar  
    24     9    43 1   
    25    10    11 ar  
    26    10    44 1   
    27    11    12 1   
    28    12    45 1   
    29    12    46 1   
    30    12    59 1   
    31    13    26 ar  
    32    13    29 ar  
    33    13    47 1   
    34    14    27 ar  
    35    14    28 ar  
    36    14    48 1   
    37    15    16 ar  
    38    15    19 ar  
    39    15    34 ar  
    40    16    17 ar  
    41    16    29 1   
    42    17    18 ar  
    43    18    30 ar  
    44    18    49 1   
    45    19    30 ar  
    46    19    31 ar  
    47    20    21 ar  
    48    20    50 1   
    49    21    51 1   
    50    24    25 ar  
    51    24    52 1   
    52    26    27 ar  
    53    26    59 1   
    54    27    53 1   
    55    28    29 ar  
    56    28    54 1   
    57    31    32 ar  
    58    31    58 1   
    59    32    33 ar  
    60    32    55 1   
    61    33    34 ar  
    62    33    56 1   
    63    34    57 1   
    64    58    60 1   
    65    58    61 1   
    66    58    62 1   
@<TRIPOS>SUBSTRUCTURE
     1 KVB         1 TEMP              0 ****  ****    0 ROOT
