@<TRIPOS>MOLECULE
KVB
   62    66     1     0     0
SMALL
abcg2


@<TRIPOS>ATOM
      1 C7           1.2870     3.3130     0.9310 ca         1 KVB      -0.096000
      2 C8           0.9390     3.7370    -0.3430 ca         1 KVB      -0.107500
      3 C9          -0.3770     3.6390    -0.7750 ca         1 KVB      -0.103500
      4 C10         -1.3600     3.1100     0.0530 ca         1 KVB      -0.086300
      5 C11         -2.7810     2.9610    -0.4300 c3         1 KVB       0.025200
      6 C14          8.7280    -0.5020     2.1150 c          1 KVB       0.726000
      7 C15          7.3510    -1.1940     2.2930 c3         1 KVB      -0.197100
      8 C16          5.0240    -1.2130    -0.7050 ca         1 KVB      -0.088500
      9 C19          5.6580     0.4470     1.4120 ca         1 KVB      -0.116500
     10 C20          4.7040     0.8350     0.4860 ca         1 KVB      -0.088500
     11 C21          4.3780     0.0110    -0.5900 ca         1 KVB      -0.148300
     12 C22          3.3230     0.4180    -1.5700 c3         1 KVB       0.220900
     13 C24         -0.2580     0.2370    -0.9920 ca         1 KVB      -0.130000
     14 C27         -0.2870     1.2950    -3.5470 ca         1 KVB      -0.078000
     15 C30         -3.3080    -0.8220    -0.6000 ca         1 KVB      -0.077000
     16 C31         -2.7190     0.4520    -0.8120 cp         1 KVB       0.036000
     17 C32         -3.3280     1.5640    -0.2760 ca         1 KVB      -0.124300
     18 C33         -4.5130     1.3650     0.4660 ca         1 KVB       0.370900
     19 C35         -4.4980    -0.8910     0.1650 ca         1 KVB       0.300000
     20 C5          -1.0040     2.6990     1.3360 ca         1 KVB      -0.103500
     21 C6           0.3080     2.7980     1.7730 ca         1 KVB      -0.107500
     22 O12          8.7660     0.5430     1.4440 o          1 KVB      -0.723500
     23 O13          9.6800    -1.0550     2.7000 o          1 KVB      -0.723500
     24 C17          5.9780    -1.6010     0.2280 ca         1 KVB      -0.116500
     25 C18          6.3120    -0.7810     1.3010 ca         1 KVB       0.027700
     26 C25          0.9440     0.4450    -1.6650 ca         1 KVB       0.163100
     27 C26          0.9280     0.9770    -2.9530 ca         1 KVB      -0.198000
     28 C28         -1.4820     1.1070    -2.8750 ca         1 KVB      -0.149000
     29 C29         -1.4610     0.5830    -1.5850 cp         1 KVB      -0.025000
     30 N34         -5.0780     0.2100     0.6840 nb         1 KVB      -0.667000
     31 C36         -5.1030    -2.1580     0.3940 ca         1 KVB      -0.182300
     32 C37         -4.5390    -3.2920    -0.1250 ca         1 KVB      -0.040000
     33 C38         -3.3620    -3.2170    -0.8950 ca         1 KVB      -0.133000
     34 C39         -2.7610    -2.0140    -1.1310 ca         1 KVB      -0.044000
     35 H1           2.3140     3.3810     1.2670 ha         1 KVB       0.121000
     36 H2           1.6950     4.1360    -1.0070 ha         1 KVB       0.114000
     37 H3          -0.6360     3.9490    -1.7790 ha         1 KVB       0.108000
     38 H4          -3.4290     3.6460     0.1240 hc         1 KVB       0.053200
     39 H5          -2.8460     3.2700    -1.4760 hc         1 KVB       0.053200
     40 H6           7.4890    -2.2770     2.2660 hc         1 KVB       0.034700
     41 H7           7.0080    -0.9600     3.3070 hc         1 KVB       0.034700
     42 H8           4.7850    -1.8740    -1.5300 ha         1 KVB       0.090500
     43 H9           5.8910     1.1070     2.2390 ha         1 KVB       0.113000
     44 H10          4.2130     1.7950     0.5950 ha         1 KVB       0.090500
     45 H11          3.3810     1.4920    -1.7780 h1         1 KVB       0.031200
     46 H12          3.4580    -0.1140    -2.5190 h1         1 KVB       0.031200
     47 H13         -0.2400    -0.1550     0.0170 ha         1 KVB       0.137000
     48 H14         -0.2910     1.7010    -4.5500 ha         1 KVB       0.106000
     49 H15         -5.0010     2.2310     0.9040 h4         1 KVB       0.020100
     50 H16         -1.7570     2.2820     1.9960 ha         1 KVB       0.108000
     51 H17          0.5700     2.4670     2.7700 ha         1 KVB       0.114000
     52 H19          6.4660    -2.5630     0.1190 ha         1 KVB       0.113000
     53 H20          1.8420     1.1490    -3.5040 ha         1 KVB       0.121000
     54 H21         -2.4230     1.3690    -3.3420 ha         1 KVB       0.111000
     55 H22         -4.9840    -4.2630     0.0400 ha         1 KVB       0.130000
     56 H23         -2.9400    -4.1260    -1.3010 ha         1 KVB       0.123000
     57 H24         -1.8620    -1.9680    -1.7300 ha         1 KVB       0.135000
     58 C4          -6.3620    -2.2320     1.2040 c3         1 KVB       0.370300
     59 O23          2.0610     0.1020    -0.9960 os         1 KVB      -0.334100
     60 F1          -6.8000    -3.4920     1.3270 f          1 KVB      -0.113667
     61 F2          -7.3630    -1.5370     0.6510 f          1 KVB      -0.113667
     62 F3          -6.1970    -1.7660     2.4480 f          1 KVB      -0.113667
@<TRIPOS>BOND
     1     1     2 ar  
     2     1    21 ar  
     3     1    35 1   
     4     2     3 ar  
     5     2    36 1   
     6     3     4 ar  
     7     3    37 1   
     8     4     5 1   
     9     4    20 ar  
    10     5    17 1   
    11     5    38 1   
    12     5    39 1   
    13     6     7 1   
    14     6    22 1   
    15     6    23 1   
    16     7    25 1   
    17     7    40 1   
    18     7    41 1   
    19     8    11 ar  
    20     8    24 ar  
    21     8    42 1   
    22     9    10 ar  
    23     9    25 ar  
    24     9    43 1   
    25    10    11 ar  
    26    10    44 1   
    27    11    12 1   
    28    12    45 1   
    29    12    46 1   
    30    12    59 1   
    31    13    26 ar  
    32    13    29 ar  
    33    13    47 1   
    34    14    27 ar  
    35    14    28 ar  
    36    14    48 1   
    37    15    16 ar  
    38    15    19 ar  
    39    15    34 ar  
    40    16    17 ar  
    41    16    29 1   
    42    17    18 ar  
    43    18    30 ar  
    44    18    49 1   
    45    19    30 ar  
    46    19    31 ar  
    47    20    21 ar  
    48    20    50 1   
    49    21    51 1   
    50    24    25 ar  
    51    24    52 1   
    52    26    27 ar  
    53    26    59 1   
    54    27    53 1   
    55    28    29 ar  
    56    28    54 1   
    57    31    32 ar  
    58    31    58 1   
    59    32    33 ar  
    60    32    55 1   
    61    33    34 ar  
    62    33    56 1   
    63    34    57 1   
    64    58    60 1   
    65    58    61 1   
    66    58    62 1   
@<TRIPOS>SUBSTRUCTURE
     1 KVB         1 TEMP              0 ****  ****    0 ROOT
