@<TRIPOS>MOLECULE
KVC
   51    55     1     0     0
SMALL
abcg2


@<TRIPOS>ATOM
      1 C1          30.1210    44.6960     9.3750 ca         1 KVC       0.498300
      2 C2          29.1500    44.4700    10.4040 ca         1 KVC       0.576900
      3 N3          28.2270    45.3900    10.6350 nb         1 KVC      -0.713000
      4 C4          28.2320    46.4980     9.8760 ca         1 KVC       0.315900
      5 C5          29.1480    46.6970     8.8590 ca         1 KVC       0.337800
      6 N6          30.1120    45.7640     8.6350 nb         1 KVC      -0.684000
      7 O7          31.0430    43.7260     9.2190 os         1 KVC      -0.483300
      8 C8          32.1550    43.9990     8.3240 c3         1 KVC       0.226600
      9 C9          33.0840    45.0020     8.9740 ca         1 KVC      -0.049300
     10 C10         33.4730    46.1790     8.3280 ca         1 KVC      -0.125600
     11 C11         34.3420    47.0680     8.9620 ca         1 KVC      -0.071000
     12 C12         34.8240    46.8110    10.2370 ca         1 KVC      -0.143000
     13 C13         34.4030    45.6520    10.8630 ca         1 KVC       0.173000
     14 C14         33.5480    44.7490    10.2640 ca         1 KVC      -0.135000
     15 C15         33.0360    46.4660     6.9220 c          1 KVC       0.617700
     16 F16         34.8470    45.3920    12.1180 f          1 KVC      -0.179000
     17 N17         29.2070    43.3470    11.1610 nv         1 KVC      -1.057900
     18 C18         32.8180    42.6640     8.0480 c3         1 KVC      -0.088100
     19 C19         25.8080    49.0940     7.0930 cc         1 KVC      -0.056000
     20 C20         26.2170    50.2850     6.4200 cc         1 KVC      -0.071000
     21 C21         27.5450    50.5740     6.3110 cd         1 KVC      -0.079000
     22 C22         28.4970    49.7030     6.8750 cd         1 KVC      -0.055000
     23 N23         28.0490    48.5640     7.5740 na         1 KVC       0.116100
     24 C24         26.7300    48.2500     7.6570 cd         1 KVC      -0.052000
     25 N25         29.8180    49.7500     6.8720 nc         1 KVC      -0.286600
     26 C26         30.2470    48.6480     7.5600 cc         1 KVC       0.075400
     27 C27         29.1820    47.8950     8.0270 cd         1 KVC      -0.188900
     28 C28         24.4270    48.7610     7.1860 cg         1 KVC       0.324000
     29 N29         23.3040    48.5060     7.2500 n1         1 KVC      -0.434000
     30 C30         31.7110    48.3990     7.7620 c3         1 KVC       0.188200
     31 N31         32.3060    47.5790     6.6990 n          1 KVC      -0.396800
     32 C32         32.0320    47.9850     5.3250 c3         1 KVC       0.084300
     33 O33         33.3940    45.7120     6.0100 o          1 KVC      -0.608100
     34 H4          27.4920    47.2480    10.1230 h4         1 KVC       0.029100
     35 H8          31.7480    44.4080     7.4050 h1         1 KVC       0.090700
     36 H11         34.6400    47.9760     8.4540 ha         1 KVC       0.126000
     37 H12         35.4990    47.4910    10.7380 ha         1 KVC       0.138000
     38 H14         33.2430    43.8610    10.8020 ha         1 KVC       0.140000
     39 HN17        28.4180    43.1320    11.7500 hn         1 KVC       0.498000
     40 HN1A        29.7770    42.5790    10.8480 hn         1 KVC       0.498000
     41 H18         33.6630    42.8160     7.3770 hc         1 KVC       0.055033
     42 H18A        33.1830    42.2100     8.9700 hc         1 KVC       0.055033
     43 H18B        32.1100    41.9850     7.5730 hc         1 KVC       0.055033
     44 H20         25.4670    50.9380     5.9970 ha         1 KVC       0.139000
     45 H21         27.8960    51.4550     5.7930 ha         1 KVC       0.152000
     46 H24         26.4590    47.3350     8.1580 h4         1 KVC       0.162000
     47 H30         32.2170    49.3670     7.7900 h1         1 KVC       0.068200
     48 H30A        31.8670    47.9010     8.7120 h1         1 KVC       0.068200
     49 H32         32.0650    49.0720     5.2650 h1         1 KVC       0.050033
     50 H32A        32.7840    47.5540     4.6720 h1         1 KVC       0.050033
     51 H32B        31.0450    47.6490     5.0010 h1         1 KVC       0.050033
@<TRIPOS>BOND
     1     1     2 ar  
     2     1     6 ar  
     3     1     7 1   
     4     2     3 ar  
     5     2    17 1   
     6     3     4 ar  
     7     4     5 ar  
     8     4    34 1   
     9     5     6 ar  
    10     5    27 1   
    11     7     8 1   
    12     8     9 1   
    13     8    18 1   
    14     8    35 1   
    15     9    10 ar  
    16     9    14 ar  
    17    10    11 ar  
    18    10    15 1   
    19    11    12 ar  
    20    11    36 1   
    21    12    13 ar  
    22    12    37 1   
    23    13    14 ar  
    24    13    16 1   
    25    14    38 1   
    26    15    31 1   
    27    15    33 2   
    28    17    39 1   
    29    17    40 1   
    30    18    41 1   
    31    18    42 1   
    32    18    43 1   
    33    19    20 1   
    34    19    24 2   
    35    19    28 1   
    36    20    21 2   
    37    20    44 1   
    38    21    22 1   
    39    21    45 1   
    40    22    23 1   
    41    22    25 2   
    42    23    24 1   
    43    23    27 1   
    44    24    46 1   
    45    25    26 1   
    46    26    27 2   
    47    26    30 1   
    48    28    29 3   
    49    30    31 1   
    50    30    47 1   
    51    30    48 1   
    52    31    32 1   
    53    32    49 1   
    54    32    50 1   
    55    32    51 1   
@<TRIPOS>SUBSTRUCTURE
     1 KVC         1 TEMP              0 ****  ****    0 ROOT
