@<TRIPOS>MOLECULE
KVC
   51    55     1     0     0
SMALL
No Charge or Current Charge


@<TRIPOS>ATOM
      1 C1          30.1460    44.7030     9.4480 ca         1 KVC       0.498300
      2 C2          29.1580    44.5130    10.5000 ca         1 KVC       0.576900
      3 N3          28.2130    45.4130    10.8040 nb         1 KVC      -0.713000
      4 C4          28.2550    46.5470    10.0480 ca         1 KVC       0.315900
      5 C5          29.2260    46.7760     9.0190 ca         1 KVC       0.337800
      6 N6          30.1620    45.8420     8.6970 nb         1 KVC      -0.684000
      7 O7          31.0610    43.6950     9.1820 os         1 KVC      -0.483300
      8 C8          32.1620    43.9000     8.2770 c3         1 KVC       0.226600
      9 C9          33.1410    44.9120     8.9020 ca         1 KVC      -0.049300
     10 C10         33.4650    46.1430     8.2680 ca         1 KVC      -0.125600
     11 C11         34.3220    47.0580     8.9220 ca         1 KVC      -0.071000
     12 C12         34.8470    46.7680    10.1910 ca         1 KVC      -0.143000
     13 C13         34.5210    45.5600    10.8160 ca         1 KVC       0.173000
     14 C14         33.6750    44.6400    10.1830 ca         1 KVC      -0.135000
     15 C15         32.9420    46.4930     6.8930 c          1 KVC       0.617700
     16 F16         35.0190    45.2810    12.0400 f          1 KVC      -0.179000
     17 N17         29.0170    43.4260    11.3080 nv         1 KVC      -1.057900
     18 C18         32.8090    42.5240     8.0350 c3         1 KVC      -0.088100
     19 C19         25.8320    48.9740     7.0400 cc         1 KVC      -0.056000
     20 C20         26.2170    50.1670     6.3140 cc         1 KVC      -0.071000
     21 C21         27.5400    50.5340     6.2030 cd         1 KVC      -0.079000
     22 C22         28.4690    49.6970     6.8820 cd         1 KVC      -0.055000
     23 N23         28.0820    48.6360     7.6530 na         1 KVC       0.116100
     24 C24         26.7630    48.1630     7.6890 cd         1 KVC      -0.052000
     25 N25         29.7820    49.7850     6.8750 nc         1 KVC      -0.286600
     26 C26         30.2300    48.7150     7.6260 cc         1 KVC       0.075400
     27 C27         29.1830    47.9860     8.1750 cd         1 KVC      -0.188900
     28 C28         24.4490    48.6330     7.0530 cg         1 KVC       0.324000
     29 N29         23.3210    48.3330     7.0810 n1         1 KVC      -0.434000
     30 C30         31.7220    48.5120     7.8160 c3         1 KVC       0.188200
     31 N31         32.3740    47.7720     6.6960 n          1 KVC      -0.396800
     32 C32         32.0950    48.2440     5.3210 c3         1 KVC       0.084300
     33 O33         33.1230    45.7350     5.9460 o          1 KVC      -0.608100
     34 H4          27.5060    47.3020    10.2810 h4         1 KVC       0.029100
     35 H8          31.7790    44.2560     7.3130 h1         1 KVC       0.090700
     36 H11         34.5920    47.9950     8.4370 ha         1 KVC       0.126000
     37 H12         35.5070    47.4750    10.6870 ha         1 KVC       0.138000
     38 H14         33.4210    43.7180    10.6990 ha         1 KVC       0.140000
     39 HN17        28.1240    43.3500    11.7830 hn         1 KVC       0.498000
     40 HN1A        29.4540    42.5590    11.0080 hn         1 KVC       0.498000
     41 H18         33.6780    42.6250     7.3740 hc         1 KVC       0.055033
     42 H18A        33.1410    42.0670     8.9740 hc         1 KVC       0.055033
     43 H18B        32.0940    41.8450     7.5560 hc         1 KVC       0.055033
     44 H20         25.4490    50.7580     5.8200 ha         1 KVC       0.139000
     45 H21         27.8540    51.3940     5.6190 ha         1 KVC       0.152000
     46 H24         26.5340    47.2420     8.2060 h4         1 KVC       0.162000
     47 H30         32.2040    49.4940     7.9070 h1         1 KVC       0.068200
     48 H30A        31.8710    47.9970     8.7710 h1         1 KVC       0.068200
     49 H32         32.0070    49.3380     5.3070 h1         1 KVC       0.050033
     50 H32A        32.9120    47.9570     4.6470 h1         1 KVC       0.050033
     51 H32B        31.1580    47.8010     4.9590 h1         1 KVC       0.050033
@<TRIPOS>BOND
     1     1     2 ar  
     2     1     6 ar  
     3     1     7 1   
     4     2     3 ar  
     5     2    17 1   
     6     3     4 ar  
     7     4     5 ar  
     8     4    34 1   
     9     5     6 ar  
    10     5    27 1   
    11     7     8 1   
    12     8     9 1   
    13     8    18 1   
    14     8    35 1   
    15     9    10 ar  
    16     9    14 ar  
    17    10    11 ar  
    18    10    15 1   
    19    11    12 ar  
    20    11    36 1   
    21    12    13 ar  
    22    12    37 1   
    23    13    14 ar  
    24    13    16 1   
    25    14    38 1   
    26    15    31 1   
    27    15    33 2   
    28    17    39 1   
    29    17    40 1   
    30    18    41 1   
    31    18    42 1   
    32    18    43 1   
    33    19    20 1   
    34    19    24 2   
    35    19    28 1   
    36    20    21 2   
    37    20    44 1   
    38    21    22 1   
    39    21    45 1   
    40    22    23 1   
    41    22    25 2   
    42    23    24 1   
    43    23    27 1   
    44    24    46 1   
    45    25    26 1   
    46    26    27 2   
    47    26    30 1   
    48    28    29 3   
    49    30    31 1   
    50    30    47 1   
    51    30    48 1   
    52    31    32 1   
    53    32    49 1   
    54    32    50 1   
    55    32    51 1   
@<TRIPOS>SUBSTRUCTURE
     1 KVC         1 TEMP              0 ****  ****    0 ROOT
