@<TRIPOS>MOLECULE
KVD
   25    26     1     0     0
SMALL
No Charge or Current Charge


@<TRIPOS>ATOM
      1 C12         -3.1320    -0.0250    -0.0190 ca         1 KVD       0.068000
      2 C13         -4.0550     1.0370    -0.0600 ca         1 KVD      -0.100500
      3 C14         -5.4360     0.7740    -0.0780 ca         1 KVD      -0.115000
      4 C15         -5.8990    -0.5530    -0.0540 ca         1 KVD      -0.124000
      5 C16         -4.9810    -1.6170    -0.0130 ca         1 KVD      -0.115000
      6 C17         -3.5990    -1.3530     0.0050 ca         1 KVD      -0.100500
      7 C04          3.1750    -0.0400    -0.0280 ca         1 KVD      -0.188600
      8 C05          3.5680     1.3110    -0.0010 ca         1 KVD       0.361900
      9 C07          1.3660     2.0440     0.0250 ca         1 KVD       0.335900
     10 C08          0.8760     0.7250    -0.0010 ca         1 KVD      -0.090000
     11 C09          1.7950    -0.3380    -0.0280 ca         1 KVD      -0.025000
     12 C10         -0.5350     0.4710    -0.0000 cg         1 KVD      -0.023000
     13 C11         -1.7330     0.2420    -0.0010 ch         1 KVD      -0.193000
     14 N06          2.6870     2.3410     0.0260 nb         1 KVD      -0.711000
     15 O01          5.3950    -0.7970    -0.0540 o          1 KVD      -0.712000
     16 O03          3.8450    -2.2850    -0.0800 o          1 KVD      -0.712000
     17 H131        -3.7020     2.0660    -0.0790 ha         1 KVD       0.120500
     18 H141        -6.1460     1.5970    -0.1100 ha         1 KVD       0.104500
     19 H151        -6.9670    -0.7570    -0.0680 ha         1 KVD       0.102000
     20 H161        -5.3380    -2.6440     0.0050 ha         1 KVD       0.104500
     21 H171        -2.8930    -2.1800     0.0370 ha         1 KVD       0.120500
     22 H051         4.6200     1.5940     0.0010 h4         1 KVD       0.036100
     23 H071         0.6840     2.8940     0.0470 h4         1 KVD      -0.003900
     24 H091         1.4430    -1.3680    -0.0490 ha         1 KVD       0.139000
     25 C02          4.2170    -1.1210    -0.0560 c          1 KVD       0.720600
@<TRIPOS>BOND
     1     1     2 ar  
     2     1     6 ar  
     3     1    13 1   
     4     2     3 ar  
     5     2    17 1   
     6     3     4 ar  
     7     3    18 1   
     8     4     5 ar  
     9     4    19 1   
    10     5     6 ar  
    11     5    20 1   
    12     6    21 1   
    13     7     8 ar  
    14     7    11 ar  
    15     7    25 1   
    16     8    14 ar  
    17     8    22 1   
    18     9    10 ar  
    19     9    14 ar  
    20     9    23 1   
    21    10    11 ar  
    22    10    12 1   
    23    11    24 1   
    24    12    13 3   
    25    15    25 1   
    26    16    25 1   
@<TRIPOS>SUBSTRUCTURE
     1 KVD         1 TEMP              0 ****  ****    0 ROOT
