@<TRIPOS>MOLECULE
KVD
   25    26     1     0     0
SMALL
bcc


@<TRIPOS>ATOM
      1 C12         -3.1190    -0.0210    -0.0260 ca         1 KVD       0.068000
      2 C13         -4.0390     1.0320    -0.0640 ca         1 KVD      -0.118500
      3 C14         -5.3990     0.7660    -0.0740 ca         1 KVD      -0.133000
      4 C15         -5.8570    -0.5460    -0.0470 ca         1 KVD      -0.142000
      5 C16         -4.9480    -1.5960    -0.0100 ca         1 KVD      -0.133000
      6 C17         -3.5870    -1.3390     0.0010 ca         1 KVD      -0.118500
      7 C04          3.1500    -0.0300    -0.0270 ca         1 KVD      -0.253900
      8 C05          3.5120     1.3140     0.0050 ca         1 KVD       0.427200
      9 C07          1.3500     2.0250     0.0250 ca         1 KVD       0.401200
     10 C08          0.8640     0.7140    -0.0070 ca         1 KVD      -0.155300
     11 C09          1.7960    -0.3240    -0.0330 ca         1 KVD      -0.043000
     12 C10         -0.5330     0.4610    -0.0120 cg         1 KVD      -0.023000
     13 C11         -1.7210     0.2430    -0.0160 ch         1 KVD      -0.193000
     14 N06          2.6400     2.3170     0.0310 nb         1 KVD      -0.711000
     15 O01          5.3870    -0.7680    -0.0520 o          1 KVD      -0.817300
     16 O03          3.7670    -2.3020    -0.0750 o          1 KVD      -0.817300
     17 H131        -3.6830     2.0540    -0.0850 ha         1 KVD       0.138500
     18 H141        -6.1040     1.5860    -0.1040 ha         1 KVD       0.122500
     19 H151        -6.9200    -0.7470    -0.0550 ha         1 KVD       0.120000
     20 H161        -5.3000    -2.6190     0.0120 ha         1 KVD       0.122500
     21 H171        -2.8780    -2.1570     0.0300 ha         1 KVD       0.138500
     22 H051         4.5610     1.5880     0.0100 h4         1 KVD       0.036100
     23 H071         0.6550     2.8570     0.0480 h4         1 KVD      -0.003900
     24 H091         1.4630    -1.3530    -0.0560 ha         1 KVD       0.157000
     25 C02          4.1990    -1.1360    -0.0540 c          1 KVD       0.931200
@<TRIPOS>BOND
     1     1     2 ar  
     2     1     6 ar  
     3     1    13 1   
     4     2     3 ar  
     5     2    17 1   
     6     3     4 ar  
     7     3    18 1   
     8     4     5 ar  
     9     4    19 1   
    10     5     6 ar  
    11     5    20 1   
    12     6    21 1   
    13     7     8 ar  
    14     7    11 ar  
    15     7    25 1   
    16     8    14 ar  
    17     8    22 1   
    18     9    10 ar  
    19     9    14 ar  
    20     9    23 1   
    21    10    11 ar  
    22    10    12 1   
    23    11    24 1   
    24    12    13 3   
    25    15    25 1   
    26    16    25 1   
@<TRIPOS>SUBSTRUCTURE
     1 KVD         1 TEMP              0 ****  ****    0 ROOT
