@<TRIPOS>MOLECULE
KVE
   45    48     1     0     0
SMALL
abcg2


@<TRIPOS>ATOM
      1 C1           0.9170    -0.7540    -0.2350 cc         1 KVE       0.408700
      2 C3          -0.9680    -1.9970     0.5900 cc         1 KVE      -0.290000
      3 C4          -1.2750    -0.7860     0.0390 cd         1 KVE       0.355500
      4 C6          -2.6130    -0.1960    -0.0940 ca         1 KVE      -0.113500
      5 C10         -3.9980     1.6560    -0.8160 ca         1 KVE      -0.105000
      6 C14         -7.5590     0.8520    -0.0970 ca         1 KVE      -0.104000
      7 C7          -3.7360    -0.8650     0.3310 ca         1 KVE      -0.084000
      8 C8          -5.0230    -0.3030     0.1980 ca         1 KVE      -0.040000
      9 C12         -6.1830    -0.9910     0.6310 ca         1 KVE      -0.096000
     10 C13         -7.4210    -0.4270     0.4860 ca         1 KVE      -0.109000
     11 C15         -6.4550     1.5400    -0.5230 ca         1 KVE      -0.099000
     12 C9          -5.1630     0.9820    -0.3870 ca         1 KVE      -0.029000
     13 C11         -2.7630     1.0890    -0.6760 ca         1 KVE      -0.080000
     14 N5          -0.1820    -0.0990    -0.4210 nd         1 KVE      -0.675000
     15 S2           0.7170    -2.2760     0.5360 ss         1 KVE       0.091600
     16 C16          2.2680    -0.2630    -0.6400 c6         1 KVE       0.097000
     17 O5           3.2020    -1.0570     0.0370 os         1 KVE      -0.445000
     18 C5           4.5420    -0.7820    -0.3260 c6         1 KVE       0.174300
     19 C19          5.4280    -1.7720     0.3970 c3         1 KVE       0.170600
     20 O6           5.1010    -3.0720    -0.0300 oh         1 KVE      -0.712000
     21 C18          4.8760     0.6650     0.0420 c6         1 KVE       0.144300
     22 O4           6.1940     0.9250    -0.3690 oh         1 KVE      -0.719000
     23 C17          3.8880     1.6110    -0.6340 c6         1 KVE       0.138300
     24 O3           4.1980     2.9160    -0.2100 oh         1 KVE      -0.666000
     25 C2           2.4560     1.2220    -0.2940 c6         1 KVE       0.124300
     26 O2           1.5910     2.0410    -1.0350 oh         1 KVE      -0.730000
     27 H1          -1.6310    -2.7270     1.0280 h4         1 KVE       0.162000
     28 H2          -4.0920     2.6380    -1.2650 ha         1 KVE       0.115000
     29 H3          -8.5440     1.2850    -0.2060 ha         1 KVE       0.113000
     30 H4          -3.6580    -1.8480     0.7800 ha         1 KVE       0.111000
     31 H5          -6.0770    -1.9710     1.0800 ha         1 KVE       0.112000
     32 H6          -8.3020    -0.9600     0.8170 ha         1 KVE       0.113000
     33 H7          -6.5610     2.5200    -0.9730 ha         1 KVE       0.114000
     34 H8          -1.8870     1.6260    -1.0120 ha         1 KVE       0.128000
     35 H9           2.3700    -0.3820    -1.7310 h1         1 KVE       0.072700
     36 H10          4.6650    -0.9090    -1.4140 h1         1 KVE       0.064700
     37 H11          6.4710    -1.5230     0.1760 h1         1 KVE       0.038700
     38 H12          5.2890    -1.6480     1.4800 h1         1 KVE       0.038700
     39 H13          5.7490    -3.6760     0.3400 ho         1 KVE       0.505000
     40 H14          4.7730     0.7730     1.1340 h1         1 KVE       0.054700
     41 H15          6.4140     1.8280    -0.1180 ho         1 KVE       0.527000
     42 H16          4.0170     1.5110    -1.7250 h1         1 KVE       0.052700
     43 H17          3.6920     3.5400    -0.7390 ho         1 KVE       0.468000
     44 H18          2.3010     1.3400     0.7890 h1         1 KVE       0.058700
     45 H19          0.6880     1.7320    -0.8710 ho         1 KVE       0.544000
@<TRIPOS>BOND
     1     1    14 2   
     2     1    15 1   
     3     1    16 1   
     4     2     3 2   
     5     2    15 1   
     6     2    27 1   
     7     3     4 1   
     8     3    14 1   
     9     4     7 ar  
    10     4    13 ar  
    11     5    12 ar  
    12     5    13 ar  
    13     5    28 1   
    14     6    10 ar  
    15     6    11 ar  
    16     6    29 1   
    17     7     8 ar  
    18     7    30 1   
    19     8     9 ar  
    20     8    12 ar  
    21     9    10 ar  
    22     9    31 1   
    23    10    32 1   
    24    11    12 ar  
    25    11    33 1   
    26    13    34 1   
    27    16    17 1   
    28    16    25 1   
    29    16    35 1   
    30    17    18 1   
    31    18    19 1   
    32    18    21 1   
    33    18    36 1   
    34    19    20 1   
    35    19    37 1   
    36    19    38 1   
    37    20    39 1   
    38    21    22 1   
    39    21    23 1   
    40    21    40 1   
    41    22    41 1   
    42    23    24 1   
    43    23    25 1   
    44    23    42 1   
    45    24    43 1   
    46    25    26 1   
    47    25    44 1   
    48    26    45 1   
@<TRIPOS>SUBSTRUCTURE
     1 KVE         1 TEMP              0 ****  ****    0 ROOT
