@<TRIPOS>MOLECULE
KVE
   45    48     1     0     0
SMALL
No Charge or Current Charge


@<TRIPOS>ATOM
      1 C1           0.9000    -0.7600    -0.1670 cc         1 KVE       0.408700
      2 C3          -1.0590    -1.9270     0.6610 cc         1 KVE      -0.290000
      3 C4          -1.3300    -0.7290     0.0400 cd         1 KVE       0.355500
      4 C6          -2.6820    -0.1470    -0.1370 ca         1 KVE      -0.113500
      5 C10         -4.1360     1.6460    -0.9700 ca         1 KVE      -0.105000
      6 C14         -7.6800     0.8540    -0.1480 ca         1 KVE      -0.104000
      7 C7          -3.8300    -0.8120     0.3550 ca         1 KVE      -0.084000
      8 C8          -5.1140    -0.2580     0.1880 ca         1 KVE      -0.040000
      9 C12         -6.2470    -0.9320     0.6830 ca         1 KVE      -0.096000
     10 C13         -7.5280    -0.3760     0.5150 ca         1 KVE      -0.109000
     11 C15         -6.5520     1.5300    -0.6440 ca         1 KVE      -0.099000
     12 C9          -5.2680     0.9760    -0.4770 ca         1 KVE      -0.029000
     13 C11         -2.8560     1.0900    -0.8010 ca         1 KVE      -0.080000
     14 N5          -0.2060    -0.0630    -0.4320 nd         1 KVE      -0.675000
     15 S2           0.6440    -2.2720     0.6700 ss         1 KVE       0.091600
     16 C16          2.2980    -0.3040    -0.5660 c6         1 KVE       0.097000
     17 O5           3.3360    -1.1360     0.0210 os         1 KVE      -0.445000
     18 C5           4.6910    -0.8070    -0.3940 c6         1 KVE       0.174300
     19 C19          5.6670    -1.8560     0.2360 c3         1 KVE       0.170600
     20 O6           5.3370    -3.2210    -0.0990 oh         1 KVE      -0.712000
     21 C18          5.0310     0.6550     0.0340 c6         1 KVE       0.144300
     22 O4           6.3470     1.0590    -0.3900 oh         1 KVE      -0.719000
     23 C17          3.9690     1.6210    -0.5660 c6         1 KVE       0.138300
     24 O3           4.2160     2.9760    -0.1530 oh         1 KVE      -0.666000
     25 C2           2.5360     1.1840    -0.1460 c6         1 KVE       0.124300
     26 O2           1.5600     2.0680    -0.7350 oh         1 KVE      -0.730000
     27 H1          -1.7380    -2.6340     1.1130 h4         1 KVE       0.162000
     28 H2          -4.2440     2.5980    -1.4840 ha         1 KVE       0.115000
     29 H3          -8.6720     1.2830    -0.2780 ha         1 KVE       0.113000
     30 H4          -3.7370    -1.7630     0.8700 ha         1 KVE       0.111000
     31 H5          -6.1390    -1.8840     1.1970 ha         1 KVE       0.112000
     32 H6          -8.4020    -0.8990     0.8980 ha         1 KVE       0.113000
     33 H7          -6.6770     2.4810    -1.1560 ha         1 KVE       0.114000
     34 H8          -2.0000     1.6320    -1.1950 ha         1 KVE       0.128000
     35 H9           2.3830    -0.3790    -1.6600 h1         1 KVE       0.072700
     36 H10          4.7580    -0.8930    -1.4880 h1         1 KVE       0.064700
     37 H11          6.6850    -1.6250    -0.1040 h1         1 KVE       0.038700
     38 H12          5.6510    -1.7220     1.3270 h1         1 KVE       0.038700
     39 H13          5.9680    -3.7980     0.3920 ho         1 KVE       0.505000
     40 H14          4.9630     0.7110     1.1320 h1         1 KVE       0.054700
     41 H15          6.3270     2.0470    -0.3580 ho         1 KVE       0.527000
     42 H16          4.0300     1.5560    -1.6640 h1         1 KVE       0.052700
     43 H17          3.3560     3.4370    -0.2970 ho         1 KVE       0.468000
     44 H18          2.4650     1.2360     0.9520 h1         1 KVE       0.058700
     45 H19          0.6990     1.5640    -0.7030 ho         1 KVE       0.544000
@<TRIPOS>BOND
     1     1    14 2   
     2     1    15 1   
     3     1    16 1   
     4     2     3 2   
     5     2    15 1   
     6     2    27 1   
     7     3     4 1   
     8     3    14 1   
     9     4     7 ar  
    10     4    13 ar  
    11     5    12 ar  
    12     5    13 ar  
    13     5    28 1   
    14     6    10 ar  
    15     6    11 ar  
    16     6    29 1   
    17     7     8 ar  
    18     7    30 1   
    19     8     9 ar  
    20     8    12 ar  
    21     9    10 ar  
    22     9    31 1   
    23    10    32 1   
    24    11    12 ar  
    25    11    33 1   
    26    13    34 1   
    27    16    17 1   
    28    16    25 1   
    29    16    35 1   
    30    17    18 1   
    31    18    19 1   
    32    18    21 1   
    33    18    36 1   
    34    19    20 1   
    35    19    37 1   
    36    19    38 1   
    37    20    39 1   
    38    21    22 1   
    39    21    23 1   
    40    21    40 1   
    41    22    41 1   
    42    23    24 1   
    43    23    25 1   
    44    23    42 1   
    45    24    43 1   
    46    25    26 1   
    47    25    44 1   
    48    26    45 1   
@<TRIPOS>SUBSTRUCTURE
     1 KVE         1 TEMP              0 ****  ****    0 ROOT
