@<TRIPOS>MOLECULE
KVF
   36    37     1     0     0
SMALL
abcg2


@<TRIPOS>ATOM
      1 N1           7.5780     0.6240    17.2800 nb         1 KVF      -0.307000
      2 C4           7.6920     0.2030    19.6440 ca         1 KVF      -0.057000
      3 C5           8.1370     0.0380    18.3270 ca         1 KVF       0.255900
      4 C6           6.0610     1.6030    18.6960 ca         1 KVF       0.284900
      5 C7           6.5830     1.0100    19.8530 ca         1 KVF      -0.072300
      6 C8           5.9270     1.2140    21.1790 c3         1 KVF      -0.048800
      7 C10         11.9040     0.0660    23.5260 ca         1 KVF      -0.089000
      8 C13         13.1660    -0.7830    21.2290 ca         1 KVF       0.126000
      9 CL          13.9610    -1.3260    19.7630 cl         1 KVF      -0.209000
     10 C12         13.9150    -0.1430    22.2070 ca         1 KVF      -0.095000
     11 C11         13.2680     0.2810    23.3620 ca         1 KVF      -0.097000
     12 C14         11.8060    -1.0060    21.3780 ca         1 KVF      -0.100000
     13 C9          11.1620    -0.5800    22.5400 ca         1 KVF      -0.070300
     14 C2           9.6730    -0.8160    22.7290 c3         1 KVF      -0.097400
     15 C1           9.2920    -2.3040    22.6780 c3         1 KVF      -0.070400
     16 C            9.9120    -3.0910    23.8290 c3         1 KVF      -0.090100
     17 C3           8.9070     0.1010    21.7730 c          1 KVF       0.607100
     18 O            8.8190     1.3010    21.9860 o          1 KVF      -0.569100
     19 N            8.3550    -0.4900    20.6720 ns         1 KVF      -0.159000
     20 N2           6.5300     1.4290    17.4690 nb         1 KVF      -0.321000
     21 H1           8.9880    -0.6020    18.1200 h4         1 KVF       0.026100
     22 H2           5.1930     2.2480    18.7730 h4         1 KVF       0.028100
     23 H3           5.9480     0.2950    21.7660 hc         1 KVF       0.057700
     24 H4           6.4560     1.9750    21.7550 hc         1 KVF       0.057700
     25 H5           4.8930     1.5310    21.0450 hc         1 KVF       0.057700
     26 H6          11.4110     0.3980    24.4310 ha         1 KVF       0.122000
     27 H7          14.9760     0.0180    22.0690 ha         1 KVF       0.133000
     28 H8          13.8350     0.7790    24.1370 ha         1 KVF       0.123000
     29 H9          11.2610    -1.5100    20.5910 ha         1 KVF       0.121000
     30 H10          9.4090    -0.4350    23.7180 hc         1 KVF       0.085700
     31 H11          8.2040    -2.3880    22.7200 hc         1 KVF       0.043200
     32 H12          9.6120    -2.7460    21.7300 hc         1 KVF       0.043200
     33 H13          9.6050    -4.1370    23.7890 hc         1 KVF       0.040700
     34 H14         11.0020    -3.0580    23.7900 hc         1 KVF       0.040700
     35 H15          9.5980    -2.6820    24.7920 hc         1 KVF       0.040700
     36 H16          8.6220    -1.4420    20.4670 hn         1 KVF       0.159000
@<TRIPOS>BOND
     1     1     3 ar  
     2     1    20 ar  
     3     2     3 ar  
     4     2     5 ar  
     5     2    19 1   
     6     3    21 1   
     7     4     5 ar  
     8     4    20 ar  
     9     4    22 1   
    10     5     6 1   
    11     6    23 1   
    12     6    24 1   
    13     6    25 1   
    14     7    11 ar  
    15     7    13 ar  
    16     7    26 1   
    17     8     9 1   
    18     8    10 ar  
    19     8    12 ar  
    20    10    11 ar  
    21    10    27 1   
    22    11    28 1   
    23    12    13 ar  
    24    12    29 1   
    25    13    14 1   
    26    14    15 1   
    27    14    17 1   
    28    14    30 1   
    29    15    16 1   
    30    15    31 1   
    31    15    32 1   
    32    16    33 1   
    33    16    34 1   
    34    16    35 1   
    35    17    18 2   
    36    17    19 1   
    37    19    36 1   
@<TRIPOS>SUBSTRUCTURE
     1 KVF         1 TEMP              0 ****  ****    0 ROOT
