@<TRIPOS>MOLECULE
KVF
   36    37     1     0     0
SMALL
No Charge or Current Charge


@<TRIPOS>ATOM
      1 N1           8.2150     1.6820    17.5390 nb         1 KVF      -0.307000
      2 C4           8.0940     0.6640    19.7320 ca         1 KVF      -0.057000
      3 C5           8.8160     1.0760    18.5910 ca         1 KVF       0.255900
      4 C6           6.1310     1.5080    18.6010 ca         1 KVF       0.284900
      5 C7           6.6890     0.8710    19.7310 ca         1 KVF      -0.072300
      6 C8           5.7680     0.3960    20.8530 c3         1 KVF      -0.048800
      7 C10         11.9980     0.3180    23.0700 ca         1 KVF      -0.089000
      8 C13         12.9170    -1.4690    21.1140 ca         1 KVF       0.126000
      9 Cl          13.4900    -2.5870    19.8830 cl         1 KVF      -0.209000
     10 C12         13.7970    -0.5240    21.6640 ca         1 KVF      -0.095000
     11 C11         13.3360     0.3710    22.6420 ca         1 KVF      -0.097000
     12 C14         11.5800    -1.5240    21.5390 ca         1 KVF      -0.100000
     13 C9          11.1060    -0.6320    22.5280 ca         1 KVF      -0.070300
     14 C2           9.6470    -0.6470    23.0110 c3         1 KVF      -0.097400
     15 C1           9.0060    -2.0600    23.1240 c3         1 KVF      -0.070400
     16 C            9.7530    -3.0070    24.0870 c3         1 KVF      -0.090100
     17 C3           8.7750     0.2970    22.1590 c          1 KVF       0.607100
     18 O            8.1630     1.2380    22.6500 o          1 KVF      -0.569100
     19 N            8.7970     0.0390    20.7960 ns         1 KVF      -0.159000
     20 N2           6.8860     1.8980    17.5450 nb         1 KVF      -0.321000
     21 H1           9.8930     0.9330    18.5220 h4         1 KVF       0.026100
     22 H2           5.0610     1.6980    18.5290 h4         1 KVF       0.028100
     23 H3           6.1320    -0.5280    21.3160 hc         1 KVF       0.057700
     24 H4           5.6730     1.1580    21.6350 hc         1 KVF       0.057700
     25 H5           4.7600     0.1890    20.4760 hc         1 KVF       0.057700
     26 H6          11.6540     1.0210    23.8270 ha         1 KVF       0.122000
     27 H7          14.8310    -0.4860    21.3300 ha         1 KVF       0.133000
     28 H8          14.0140     1.1070    23.0690 ha         1 KVF       0.123000
     29 H9          10.9220    -2.2640    21.0920 ha         1 KVF       0.121000
     30 H10          9.6200    -0.2290    24.0260 hc         1 KVF       0.085700
     31 H11          7.9760    -1.9500    23.4860 hc         1 KVF       0.043200
     32 H12          8.9310    -2.5310    22.1370 hc         1 KVF       0.043200
     33 H13          9.2300    -3.9680    24.1600 hc         1 KVF       0.040700
     34 H14         10.7740    -3.2020    23.7380 hc         1 KVF       0.040700
     35 H15          9.8100    -2.5720    25.0930 hc         1 KVF       0.040700
     36 H16          9.4180    -0.7090    20.5140 hn         1 KVF       0.159000
@<TRIPOS>BOND
     1     1     3 ar  
     2     1    20 ar  
     3     2     3 ar  
     4     2     5 ar  
     5     2    19 1   
     6     3    21 1   
     7     4     5 ar  
     8     4    20 ar  
     9     4    22 1   
    10     5     6 1   
    11     6    23 1   
    12     6    24 1   
    13     6    25 1   
    14     7    11 ar  
    15     7    13 ar  
    16     7    26 1   
    17     8     9 1   
    18     8    10 ar  
    19     8    12 ar  
    20    10    11 ar  
    21    10    27 1   
    22    11    28 1   
    23    12    13 ar  
    24    12    29 1   
    25    13    14 1   
    26    14    15 1   
    27    14    17 1   
    28    14    30 1   
    29    15    16 1   
    30    15    31 1   
    31    15    32 1   
    32    16    33 1   
    33    16    34 1   
    34    16    35 1   
    35    17    18 2   
    36    17    19 1   
    37    19    36 1   
@<TRIPOS>SUBSTRUCTURE
     1 KVF         1 TEMP              0 ****  ****    0 ROOT
