@<TRIPOS>MOLECULE
KVH
   45    48     1     0     0
SMALL
No Charge or Current Charge


@<TRIPOS>ATOM
      1 C8          -5.0530     0.0930     0.1190 ca         1 KVH      -0.040000
      2 C7          -3.7840    -0.1440     0.6800 ca         1 KVH      -0.084000
      3 C9          -5.1630     0.5150    -1.2230 ca         1 KVH      -0.027000
      4 C10         -4.0010     0.6970    -1.9910 ca         1 KVH      -0.107000
      5 C11         -2.7360     0.4600    -1.4290 ca         1 KVH      -0.071000
      6 C12         -6.2160    -0.0880     0.8920 ca         1 KVH      -0.095000
      7 C13         -7.4820     0.1490     0.3290 ca         1 KVH      -0.109000
      8 C1           0.9510    -0.2740     0.6000 cc         1 KVH       0.307300
      9 C14         -7.5900     0.5690    -1.0070 ca         1 KVH      -0.102000
     10 C15         -6.4320     0.7520    -1.7830 ca         1 KVH      -0.100000
     11 C6          -2.6060     0.0320    -0.0860 ca         1 KVH      -0.124500
     12 C4          -1.2660    -0.2080     0.5030 cd         1 KVH       0.492900
     13 C2           0.6810    -0.7650     1.8540 cd         1 KVH      -0.242000
     14 N5          -0.1470     0.0460    -0.1680 nc         1 KVH      -0.629000
     15 S3          -1.0470    -0.8520     2.1330 ss         1 KVH      -0.024400
     16 C16          2.3630    -0.0810     0.0530 c6         1 KVH       0.153000
     17 O5           3.3750    -0.5160     1.0010 os         1 KVH      -0.420000
     18 C5           4.7410    -0.4350     0.5130 c6         1 KVH       0.170300
     19 C17          5.6890    -1.0390     1.6020 c3         1 KVH       0.172600
     20 O6           5.3450    -2.3900     1.9770 oh         1 KVH      -0.710000
     21 C18          5.0890     1.0480     0.1770 c6         1 KVH       0.135300
     22 O4           6.4150     1.1960    -0.3590 oh         1 KVH      -0.719000
     23 C3           4.0590     1.5940    -0.8520 c6         1 KVH       0.093300
     24 O3           4.3210     2.9760    -1.1530 oh         1 KVH      -0.669000
     25 C19          2.6090     1.4210    -0.3160 c6         1 KVH       0.120300
     26 O2           1.6670     1.8950    -1.3020 oh         1 KVH      -0.713000
     27 H1          -3.7260    -0.4650     1.7170 ha         1 KVH       0.115000
     28 H2          -4.0760     1.0230    -3.0260 ha         1 KVH       0.116000
     29 H3          -1.8540     0.6080    -2.0500 ha         1 KVH       0.138000
     30 H4          -6.1410    -0.4130     1.9280 ha         1 KVH       0.113000
     31 H5          -8.3780     0.0080     0.9290 ha         1 KVH       0.114000
     32 H6          -8.5700     0.7530    -1.4420 ha         1 KVH       0.113000
     33 H7          -6.5230     1.0780    -2.8170 ha         1 KVH       0.114000
     34 H8           1.3850    -1.0770     2.6140 h4         1 KVH       0.164000
     35 H9           2.4710    -0.6900    -0.8560 h1         1 KVH       0.052700
     36 H10          4.8290    -1.0480    -0.3960 h1         1 KVH       0.056700
     37 H11          6.7170    -1.0090     1.2160 h1         1 KVH       0.036200
     38 H12          5.6540    -0.3840     2.4840 h1         1 KVH       0.036200
     39 H13          5.9620    -2.6530     2.6990 ho         1 KVH       0.503000
     40 H14          4.9950     1.6370     1.1020 h1         1 KVH       0.058700
     41 H15          6.3890     2.0580    -0.8420 ho         1 KVH       0.519000
     42 H16          4.1480     0.9960    -1.7730 h1         1 KVH       0.052700
     43 H17          3.4790     3.3110    -1.5400 ho         1 KVH       0.451000
     44 H18          2.5070     2.0100     0.6090 h1         1 KVH       0.074700
     45 H19          0.8170     1.4170    -1.1080 ho         1 KVH       0.511000
@<TRIPOS>BOND
     1     1     2 ar  
     2     1     3 ar  
     3     1     6 ar  
     4     2    11 ar  
     5     2    27 1   
     6     3     4 ar  
     7     3    10 ar  
     8     4     5 ar  
     9     4    28 1   
    10     5    11 ar  
    11     5    29 1   
    12     6     7 ar  
    13     6    30 1   
    14     7     9 ar  
    15     7    31 1   
    16     8    13 2   
    17     8    14 1   
    18     8    16 1   
    19     9    10 ar  
    20     9    32 1   
    21    10    33 1   
    22    11    12 1   
    23    12    14 2   
    24    12    15 1   
    25    13    15 1   
    26    13    34 1   
    27    16    17 1   
    28    16    25 1   
    29    16    35 1   
    30    17    18 1   
    31    18    19 1   
    32    18    21 1   
    33    18    36 1   
    34    19    20 1   
    35    19    37 1   
    36    19    38 1   
    37    20    39 1   
    38    21    22 1   
    39    21    23 1   
    40    21    40 1   
    41    22    41 1   
    42    23    24 1   
    43    23    25 1   
    44    23    42 1   
    45    24    43 1   
    46    25    26 1   
    47    25    44 1   
    48    26    45 1   
@<TRIPOS>SUBSTRUCTURE
     1 KVH         1 TEMP              0 ****  ****    0 ROOT
