@<TRIPOS>MOLECULE
KVH
   45    48     1     0     0
SMALL
bcc


@<TRIPOS>ATOM
      1 C8          -4.7730    -0.0190     0.1320 ca         1 KVH      -0.040000
      2 C7          -3.5760    -0.7660     0.0910 ca         1 KVH      -0.102000
      3 C9          -4.7060     1.3980     0.1170 ca         1 KVH      -0.027000
      4 C10         -3.4330     2.0150     0.0620 ca         1 KVH      -0.125000
      5 C11         -2.2910     1.2720     0.0220 ca         1 KVH      -0.089000
      6 C12         -6.0400    -0.6470     0.1840 ca         1 KVH      -0.113000
      7 C13         -7.1850     0.1000     0.2210 ca         1 KVH      -0.127000
      8 C1           1.0680    -1.2810    -0.1110 cc         1 KVH       0.372600
      9 C14         -7.1170     1.5090     0.2080 ca         1 KVH      -0.120000
     10 C15         -5.9050     2.1430     0.1570 ca         1 KVH      -0.118000
     11 C6          -2.3520    -0.1460     0.0360 ca         1 KVH      -0.124500
     12 C4          -1.1020    -0.9030    -0.0130 cd         1 KVH       0.492900
     13 C2           0.6530    -2.5740    -0.0780 cd         1 KVH      -0.180400
     14 N5           0.0700    -0.3540    -0.0740 nc         1 KVH      -0.629000
     15 S3          -1.0550    -2.6380    -0.0000 ss         1 KVH      -0.169300
     16 C16          2.4880    -0.8300    -0.2000 c6         1 KVH       0.129800
     17 O5           2.7600    -0.0400     0.9350 os         1 KVH      -0.373600
     18 C5           4.1050     0.3840     1.0290 c6         1 KVH       0.147100
     19 C17          4.2630     1.1300     2.3360 c3         1 KVH       0.149400
     20 O6           4.0160     0.2430     3.4000 oh         1 KVH      -0.587800
     21 C18          4.4530     1.2580    -0.1770 c6         1 KVH       0.112100
     22 O4           5.8040     1.6340    -0.0820 oh         1 KVH      -0.596800
     23 C3           4.1840     0.4750    -1.4570 c6         1 KVH       0.070100
     24 O3           4.4430     1.3150    -2.5640 oh         1 KVH      -0.606800
     25 C19          2.7430    -0.0190    -1.4720 c6         1 KVH       0.097100
     26 O2           2.4760    -0.8560    -2.5680 oh         1 KVH      -0.590800
     27 H1          -3.6560    -1.8480     0.1020 ha         1 KVH       0.133000
     28 H2          -3.3740     3.0970     0.0520 ha         1 KVH       0.134000
     29 H3          -1.3260     1.7580    -0.0220 ha         1 KVH       0.156000
     30 H4          -6.0900    -1.7290     0.1940 ha         1 KVH       0.131000
     31 H5          -8.1500    -0.3880     0.2610 ha         1 KVH       0.132000
     32 H6          -8.0300     2.0890     0.2370 ha         1 KVH       0.131000
     33 H7          -5.8510     3.2250     0.1480 ha         1 KVH       0.132000
     34 H8           1.2540    -3.4700    -0.0960 h4         1 KVH       0.182000
     35 H9           3.1420    -1.7170    -0.2160 h1         1 KVH       0.052700
     36 H10          4.7750    -0.4920     1.0290 h1         1 KVH       0.056700
     37 H11          5.2760     1.5430     2.3790 h1         1 KVH       0.036200
     38 H12          3.5670     1.9810     2.3440 h1         1 KVH       0.036200
     39 H13          4.1480     0.7230     4.2220 ho         1 KVH       0.404000
     40 H14          3.7940     2.1410    -0.1640 h1         1 KVH       0.058700
     41 H15          6.0210     2.1490    -0.8670 ho         1 KVH       0.420000
     42 H16          4.8500    -0.4000    -1.4690 h1         1 KVH       0.052700
     43 H17          4.9350     0.8210    -3.2250 ho         1 KVH       0.412000
     44 H18          2.0710     0.8520    -1.4610 h1         1 KVH       0.074700
     45 H19          2.5200    -0.3260    -3.3710 ho         1 KVH       0.412000
@<TRIPOS>BOND
     1     1     2 ar  
     2     1     3 ar  
     3     1     6 ar  
     4     2    11 ar  
     5     2    27 1   
     6     3     4 ar  
     7     3    10 ar  
     8     4     5 ar  
     9     4    28 1   
    10     5    11 ar  
    11     5    29 1   
    12     6     7 ar  
    13     6    30 1   
    14     7     9 ar  
    15     7    31 1   
    16     8    13 2   
    17     8    14 1   
    18     8    16 1   
    19     9    10 ar  
    20     9    32 1   
    21    10    33 1   
    22    11    12 1   
    23    12    14 2   
    24    12    15 1   
    25    13    15 1   
    26    13    34 1   
    27    16    17 1   
    28    16    25 1   
    29    16    35 1   
    30    17    18 1   
    31    18    19 1   
    32    18    21 1   
    33    18    36 1   
    34    19    20 1   
    35    19    37 1   
    36    19    38 1   
    37    20    39 1   
    38    21    22 1   
    39    21    23 1   
    40    21    40 1   
    41    22    41 1   
    42    23    24 1   
    43    23    25 1   
    44    23    42 1   
    45    24    43 1   
    46    25    26 1   
    47    25    44 1   
    48    26    45 1   
@<TRIPOS>SUBSTRUCTURE
     1 KVH         1 TEMP              0 ****  ****    0 ROOT
