@<TRIPOS>MOLECULE
KVI
  121   120     1     0     0
SMALL
bcc


@<TRIPOS>ATOM
      1 C7         -10.4110     3.1290     0.2830 c          1 KVI       0.671100
      2 O2          -9.9910     4.2510     0.0400 o          1 KVI      -0.609100
      3 C8         -11.8860     2.8170     0.2920 c3         1 KVI      -0.178100
      4 N10         -9.6050     2.0860     0.5650 ns         1 KVI      -0.568900
      5 C33         -8.1700     2.1530     0.5390 c3         1 KVI      -0.010300
      6 C34         -7.6190     0.9410    -0.2090 c          1 KVI       0.671100
      7 O8          -8.2860    -0.0620    -0.3980 o          1 KVI      -0.606100
      8 C35         -7.5610     2.1880     1.9600 c3         1 KVI       0.136100
      9 O9          -7.8320     0.9880     2.6460 oh         1 KVI      -0.586800
     10 C36         -8.0060     3.4120     2.7410 c3         1 KVI      -0.124100
     11 N8          -6.3430     1.0850    -0.6030 ns         1 KVI      -0.548900
     12 C14         -5.5250     0.0100    -1.0970 c3         1 KVI       0.029700
     13 C15         -4.3380    -0.1840    -0.1530 c          1 KVI       0.662100
     14 O5          -4.0530     0.6380     0.7040 o          1 KVI      -0.610100
     15 C16         -5.1160     0.2140    -2.5740 c3         1 KVI      -0.062700
     16 C17         -4.3380     1.5050    -2.8530 c3         1 KVI      -0.073400
     17 C18         -6.3620     0.1480    -3.4530 c3         1 KVI      -0.090100
     18 C19         -2.8680     1.5070    -2.4460 c3         1 KVI      -0.099100
     19 N9          -3.6550    -1.3240    -0.3500 ns         1 KVI      -0.556900
     20 C20         -2.4430    -1.6530     0.3490 c3         1 KVI       0.004700
     21 C21         -2.5820    -2.9150     1.2150 c3         1 KVI      -0.084400
     22 C22         -3.7130    -2.8300     2.2290 c3         1 KVI      -0.076400
     23 C23         -3.7420    -4.0390     3.1580 c3         1 KVI      -0.074400
     24 C24         -4.8880    -3.9880     4.1570 c3         1 KVI      -0.089100
     25 C25         -1.2910    -1.8400    -0.6280 c          1 KVI       0.561100
     26 O6          -1.4900    -2.0110    -1.8080 o          1 KVI      -0.524100
     27 C26          0.0860    -1.8640    -0.0160 c3         1 KVI      -0.168400
     28 C27          1.2020    -1.4940    -0.9860 c3         1 KVI      -0.126700
     29 C28          1.0900    -0.0590    -1.5350 c3         1 KVI      -0.075400
     30 C29          1.0830     1.0490    -0.4890 c3         1 KVI      -0.079400
     31 C30          0.9890     2.4310    -1.1250 c3         1 KVI      -0.076400
     32 C31          0.9710     3.5520    -0.0960 c3         1 KVI      -0.088100
     33 C32          2.5570    -1.6750    -0.3190 c          1 KVI       0.669100
     34 O7           2.7120    -1.6280     0.8930 o          1 KVI      -0.612100
     35 N6           3.5720    -1.8600    -1.1850 ns         1 KVI      -0.563900
     36 C9           4.9650    -1.8760    -0.8170 c3         1 KVI       0.029700
     37 C10          5.6600    -0.6620    -1.4210 c          1 KVI       0.656100
     38 O3           5.4170    -0.2900    -2.5580 o          1 KVI      -0.605100
     39 C11          5.6680    -3.1430    -1.3110 c3         1 KVI      -0.076400
     40 C12          5.0980    -4.3930    -0.6610 c3         1 KVI      -0.158400
     41 C13          5.8120    -5.6570    -1.0940 c          1 KVI       0.669100
     42 O4           6.9960    -5.6650    -1.4020 o          1 KVI      -0.598100
     43 N7           5.0530    -6.7630    -1.0900 nt         1 KVI      -0.679000
     44 N1           6.5660    -0.0660    -0.6330 ns         1 KVI      -0.545900
     45 C1           7.4530     0.9440    -1.1450 c3         1 KVI       0.029700
     46 C6           8.4190     0.3300    -2.1650 c          1 KVI       0.658100
     47 O1           8.7340    -0.8480    -2.1230 o          1 KVI      -0.593100
     48 C2           8.2370     1.5990    -0.0080 c3         1 KVI      -0.084400
     49 C3           7.3440     2.3260     0.9890 c3         1 KVI      -0.091400
     50 C4           8.1630     3.0700     2.0320 c3         1 KVI       0.219800
     51 N2           7.2900     3.7430     2.9660 nu         1 KVI      -0.846200
     52 C5           7.7980     4.3410     4.0900 c2         1 KVI       0.787100
     53 N4           6.8760     5.1280     4.7500 nv         1 KVI      -0.956800
     54 N3           9.0230     4.1680     4.4270 n2         1 KVI      -0.891100
     55 N5           8.9020     1.2010    -3.0580 nt         1 KVI      -0.670000
     56 H32        -12.3030     3.0190    -0.6940 hc         1 KVI       0.062033
     57 H33        -12.1130     1.7870     0.5610 hc         1 KVI       0.062033
     58 H34        -12.3890     3.4770     0.9980 hc         1 KVI       0.062033
     59 H9         -10.0170     1.1720     0.6690 hn         1 KVI       0.332500
     60 H61         -7.8720     3.0670     0.0200 h1         1 KVI       0.097700
     61 H62         -6.4730     2.2230     1.8490 h1         1 KVI       0.085700
     62 H63         -8.7610     0.9850     2.9030 ho         1 KVI       0.403000
     63 H64         -9.0860     3.4190     2.9000 hc         1 KVI       0.048700
     64 H65         -7.5220     3.4270     3.7180 hc         1 KVI       0.048700
     65 H66         -7.7370     4.3290     2.2180 hc         1 KVI       0.048700
     66 H40         -5.8680     1.9390    -0.3560 hn         1 KVI       0.328500
     67 H41         -6.1280    -0.9010    -1.0570 h1         1 KVI       0.093700
     68 H12         -4.4740    -0.6310    -2.8480 hc         1 KVI       0.054700
     69 H13         -4.3870     1.6800    -3.9310 hc         1 KVI       0.041200
     70 H14         -4.8550     2.3580    -2.4030 hc         1 KVI       0.041200
     71 H15         -7.0150     1.0060    -3.2860 hc         1 KVI       0.040700
     72 H16         -6.0810     0.1500    -4.5070 hc         1 KVI       0.040700
     73 H17         -6.9420    -0.7560    -3.2640 hc         1 KVI       0.040700
     74 H42         -2.3690     2.3910    -2.8460 hc         1 KVI       0.038033
     75 H43         -2.7220     1.5240    -1.3680 hc         1 KVI       0.038033
     76 H44         -2.3530     0.6290    -2.8400 hc         1 KVI       0.038033
     77 H45         -3.9630    -1.9540    -1.0760 hn         1 KVI       0.327500
     78 H18         -2.2100    -0.8140     1.0070 h1         1 KVI       0.103700
     79 H19         -2.7290    -3.7860     0.5680 hc         1 KVI       0.046200
     80 H20         -1.6360    -3.0760     1.7400 hc         1 KVI       0.046200
     81 H21         -3.6090    -1.9170     2.8240 hc         1 KVI       0.051200
     82 H22         -4.6720    -2.7520     1.7090 hc         1 KVI       0.051200
     83 H46         -3.8170    -4.9530     2.5590 hc         1 KVI       0.034700
     84 H47         -2.7900    -4.1050     3.6930 hc         1 KVI       0.034700
     85 H48         -4.8870    -4.8620     4.8100 hc         1 KVI       0.034367
     86 H49         -4.8210    -3.1020     4.7900 hc         1 KVI       0.034367
     87 H50         -5.8540    -3.9570     3.6490 hc         1 KVI       0.034367
     88 H23          0.1010    -1.2320     0.8740 hc         1 KVI       0.080200
     89 H24          0.2430    -2.8840     0.3530 hc         1 KVI       0.080200
     90 H51          1.1560    -2.1710    -1.8440 hc         1 KVI       0.072700
     91 H52          1.9160     0.1120    -2.2330 hc         1 KVI       0.053200
     92 H53          0.1820     0.0090    -2.1380 hc         1 KVI       0.053200
     93 H54          0.2400     0.9170     0.1970 hc         1 KVI       0.045200
     94 H55          1.9850     0.9980     0.1300 hc         1 KVI       0.045200
     95 H56          1.8310     2.5710    -1.8090 hc         1 KVI       0.038200
     96 H57          0.0870     2.4830    -1.7430 hc         1 KVI       0.038200
     97 H58          0.9080     4.5310    -0.5710 hc         1 KVI       0.032367
     98 H59          0.1170     3.4540     0.5770 hc         1 KVI       0.032367
     99 H60          1.8750     3.5380     0.5150 hc         1 KVI       0.032367
    100 H35          3.3660    -1.8540    -2.1720 hn         1 KVI       0.329500
    101 H8           5.0210    -1.8380     0.2730 h1         1 KVI       0.088700
    102 H10          5.5750    -3.2040    -2.3990 hc         1 KVI       0.078200
    103 H11          6.7340    -3.0570    -1.0930 hc         1 KVI       0.078200
    104 H36          5.1970    -4.3210     0.4270 hc         1 KVI       0.058700
    105 H37          4.0280    -4.4760    -0.8630 hc         1 KVI       0.058700
    106 H38          4.0840    -6.7390    -0.8270 hn         1 KVI       0.312500
    107 H39          5.4590    -7.6630    -1.2880 hn         1 KVI       0.312500
    108 H25          6.7760    -0.4760     0.2640 hn         1 KVI       0.327500
    109 H1           6.8570     1.7150    -1.6430 h1         1 KVI       0.076700
    110 H2           8.8410     0.8430     0.5050 hc         1 KVI       0.058700
    111 H3           8.9400     2.3080    -0.4500 hc         1 KVI       0.058700
    112 H4           6.7030     3.0320     0.4500 hc         1 KVI       0.048200
    113 H5           6.6790     1.6240     1.4980 hc         1 KVI       0.048200
    114 H6           8.7870     2.3650     2.5840 h1         1 KVI       0.052700
    115 H7           8.8490     3.7710     1.5370 h1         1 KVI       0.052700
    116 H26          6.5060     4.2170     2.5450 hn         1 KVI       0.411800
    117 H28          5.9140     4.8310     4.6870 hn         1 KVI       0.397800
    118 H29          7.1260     5.3810     5.6920 hn         1 KVI       0.397800
    119 H27          9.2130     4.6060     5.3200 hn         1 KVI       0.378400
    120 H30          8.6020     2.1610    -3.0830 hn         1 KVI       0.315500
    121 H31          9.5890     0.9150    -3.7370 hn         1 KVI       0.315500
@<TRIPOS>BOND
     1     1     2 2   
     2     1     3 1   
     3     1     4 1   
     4     3    56 1   
     5     3    57 1   
     6     3    58 1   
     7     4     5 1   
     8     4    59 1   
     9     5     6 1   
    10     5     8 1   
    11     5    60 1   
    12     6     7 2   
    13     6    11 1   
    14     8     9 1   
    15     8    10 1   
    16     8    61 1   
    17     9    62 1   
    18    10    63 1   
    19    10    64 1   
    20    10    65 1   
    21    11    12 1   
    22    11    66 1   
    23    12    13 1   
    24    12    15 1   
    25    12    67 1   
    26    13    14 2   
    27    13    19 1   
    28    15    16 1   
    29    15    17 1   
    30    15    68 1   
    31    16    18 1   
    32    16    69 1   
    33    16    70 1   
    34    17    71 1   
    35    17    72 1   
    36    17    73 1   
    37    18    74 1   
    38    18    75 1   
    39    18    76 1   
    40    19    20 1   
    41    19    77 1   
    42    20    21 1   
    43    20    25 1   
    44    20    78 1   
    45    21    22 1   
    46    21    79 1   
    47    21    80 1   
    48    22    23 1   
    49    22    81 1   
    50    22    82 1   
    51    23    24 1   
    52    23    83 1   
    53    23    84 1   
    54    24    85 1   
    55    24    86 1   
    56    24    87 1   
    57    25    26 2   
    58    25    27 1   
    59    27    28 1   
    60    27    88 1   
    61    27    89 1   
    62    28    29 1   
    63    28    33 1   
    64    28    90 1   
    65    29    30 1   
    66    29    91 1   
    67    29    92 1   
    68    30    31 1   
    69    30    93 1   
    70    30    94 1   
    71    31    32 1   
    72    31    95 1   
    73    31    96 1   
    74    32    97 1   
    75    32    98 1   
    76    32    99 1   
    77    33    34 2   
    78    33    35 1   
    79    35    36 1   
    80    35   100 1   
    81    36    37 1   
    82    36    39 1   
    83    36   101 1   
    84    37    38 2   
    85    37    44 1   
    86    39    40 1   
    87    39   102 1   
    88    39   103 1   
    89    40    41 1   
    90    40   104 1   
    91    40   105 1   
    92    41    42 2   
    93    41    43 1   
    94    43   106 1   
    95    43   107 1   
    96    44    45 1   
    97    44   108 1   
    98    45    46 1   
    99    45    48 1   
   100    45   109 1   
   101    46    47 2   
   102    46    55 1   
   103    48    49 1   
   104    48   110 1   
   105    48   111 1   
   106    49    50 1   
   107    49   112 1   
   108    49   113 1   
   109    50    51 1   
   110    50   114 1   
   111    50   115 1   
   112    51    52 1   
   113    51   116 1   
   114    52    53 1   
   115    52    54 2   
   116    53   117 1   
   117    53   118 1   
   118    54   119 1   
   119    55   120 1   
   120    55   121 1   
@<TRIPOS>SUBSTRUCTURE
     1 KVI         1 TEMP              0 ****  ****    0 ROOT
