@<TRIPOS>MOLECULE
KVI
  121   120     1     0     0
SMALL
No Charge or Current Charge


@<TRIPOS>ATOM
      1 C7          -9.7050     4.0980    -0.1070 c          1 KVI       0.604100
      2 O2          -9.0820     5.1200     0.1370 o          1 KVI      -0.609100
      3 C8         -11.1550     4.1130    -0.5710 c3         1 KVI      -0.178100
      4 N10         -9.1500     2.8440     0.0080 ns         1 KVI      -0.501900
      5 C33         -7.7420     2.5580     0.4090 c3         1 KVI      -0.010300
      6 C34         -7.1920     1.3460    -0.3910 c          1 KVI       0.604100
      7 O8          -7.9110     0.5870    -1.0310 o          1 KVI      -0.606100
      8 C35         -7.5820     2.3280     1.9430 c3         1 KVI       0.159300
      9 O9          -8.5510     1.3810     2.4050 oh         1 KVI      -0.649000
     10 C36         -7.7280     3.6170     2.7760 c3         1 KVI      -0.124100
     11 N8          -5.8220     1.1890    -0.3440 ns         1 KVI      -0.481900
     12 C14         -5.0570     0.1130    -1.0200 c3         1 KVI       0.029700
     13 C15         -3.9770    -0.4670    -0.0550 c          1 KVI       0.595100
     14 O5          -3.7880    -0.0270     1.0720 o          1 KVI      -0.610100
     15 C16         -4.5040     0.5650    -2.4170 c3         1 KVI      -0.062700
     16 C17         -3.6710     1.8820    -2.4040 c3         1 KVI      -0.073400
     17 C18         -5.6450     0.6700    -3.4590 c3         1 KVI      -0.090100
     18 C19         -2.3560     1.8340    -1.5990 c3         1 KVI      -0.099100
     19 N9          -3.2360    -1.5210    -0.5530 ns         1 KVI      -0.489900
     20 C20         -2.1560    -2.2220     0.1790 c3         1 KVI       0.004700
     21 C21         -2.6540    -3.5300     0.8480 c3         1 KVI      -0.084400
     22 C22         -3.7560    -3.3190     1.9130 c3         1 KVI      -0.076400
     23 C23         -4.1750    -4.6280     2.6140 c3         1 KVI      -0.074400
     24 C24         -5.2760    -4.4190     3.6730 c3         1 KVI      -0.089100
     25 C25         -0.9460    -2.4820    -0.7610 c          1 KVI       0.561100
     26 O6          -1.0710    -2.5640    -1.9780 o          1 KVI      -0.524100
     27 C26          0.4340    -2.6240    -0.0970 c3         1 KVI      -0.168400
     28 C27          1.3290    -1.3570    -0.2820 c3         1 KVI      -0.126700
     29 C28          0.7230    -0.0450     0.3040 c3         1 KVI      -0.075400
     30 C29          0.5420     0.0080     1.8420 c3         1 KVI      -0.079400
     31 C30         -0.2190     1.2680     2.3070 c3         1 KVI      -0.076400
     32 C31         -0.4130     1.3270     3.8340 c3         1 KVI      -0.088100
     33 C32          2.7740    -1.6170     0.2060 c          1 KVI       0.602100
     34 O7           3.0430    -1.9360     1.3550 o          1 KVI      -0.612100
     35 N6           3.7470    -1.4900    -0.7610 ns         1 KVI      -0.496900
     36 C9           5.1980    -1.7100    -0.5500 c3         1 KVI       0.029700
     37 C10          6.0200    -0.6460    -1.3340 c          1 KVI       0.589100
     38 O3           5.5350     0.0580    -2.2130 o          1 KVI      -0.605100
     39 C11          5.6130    -3.1530    -0.9530 c3         1 KVI      -0.076400
     40 C12          4.9030    -4.2770    -0.1530 c3         1 KVI      -0.158400
     41 C13          5.4530    -5.6580    -0.5210 c          1 KVI       0.602100
     42 O4           6.4680    -6.1250    -0.0340 o          1 KVI      -0.598100
     43 N7           4.7480    -6.3560    -1.4360 nt         1 KVI      -0.612000
     44 N1           7.3470    -0.5480    -0.9690 ns         1 KVI      -0.478900
     45 C1           8.3340     0.3820    -1.5670 c3         1 KVI       0.029700
     46 C6           9.6980    -0.3440    -1.7760 c          1 KVI       0.591100
     47 O1           9.9280    -1.4810    -1.3910 o          1 KVI      -0.593100
     48 C2           8.4840     1.6820    -0.7260 c3         1 KVI      -0.084400
     49 C3           7.1780     2.4940    -0.5480 c3         1 KVI      -0.091400
     50 C4           7.3920     3.8130     0.2220 c3         1 KVI       0.219800
     51 N2           6.1220     4.5380     0.3650 nu         1 KVI      -0.901400
     52 C5           6.0010     5.7020     0.9810 c2         1 KVI       0.787100
     53 N4           4.7490     6.0540     0.8540 nv         1 KVI      -1.067200
     54 N3           6.9370     6.3530     1.4830 n2         1 KVI      -0.891100
     55 N5          10.6670     0.3520    -2.4160 nt         1 KVI      -0.603000
     56 H32        -11.2320     3.5690    -1.5190 hc         1 KVI       0.062033
     57 H33        -11.7520     3.4910     0.1050 hc         1 KVI       0.062033
     58 H34        -11.5610     5.1280    -0.6530 hc         1 KVI       0.062033
     59 H9          -9.7300     2.0630    -0.2830 hn         1 KVI       0.332500
     60 H61         -7.1150     3.4120     0.1210 h1         1 KVI       0.097700
     61 H62         -6.5690     1.9420     2.1300 h1         1 KVI       0.085700
     62 H63         -9.4330     1.7640     2.2080 ho         1 KVI       0.442000
     63 H64         -8.7390     4.0330     2.6970 hc         1 KVI       0.048700
     64 H65         -7.5260     3.4140     3.8350 hc         1 KVI       0.048700
     65 H66         -7.0140     4.3780     2.4370 hc         1 KVI       0.048700
     66 H40         -5.3030     1.8450     0.2290 hn         1 KVI       0.328500
     67 H41         -5.7360    -0.7320    -1.1930 h1         1 KVI       0.093700
     68 H12         -3.8440    -0.2280    -2.7900 hc         1 KVI       0.054700
     69 H13         -3.4110     2.1350    -3.4400 hc         1 KVI       0.041200
     70 H14         -4.2870     2.7120    -2.0370 hc         1 KVI       0.041200
     71 H15         -6.3240     1.4970    -3.2200 hc         1 KVI       0.040700
     72 H16         -5.2380     0.8460    -4.4620 hc         1 KVI       0.040700
     73 H17         -6.2290    -0.2570    -3.4940 hc         1 KVI       0.040700
     74 H42         -1.7590     2.7320    -1.7970 hc         1 KVI       0.038033
     75 H43         -2.5470     1.7980    -0.5220 hc         1 KVI       0.038033
     76 H44         -1.7580     0.9600    -1.8850 hc         1 KVI       0.038033
     77 H45         -3.4430    -1.8200    -1.5000 hn         1 KVI       0.327500
     78 H18         -1.7880    -1.5580     0.9700 h1         1 KVI       0.103700
     79 H19         -3.0270    -4.2110     0.0720 hc         1 KVI       0.046200
     80 H20         -1.8040    -4.0330     1.3240 hc         1 KVI       0.046200
     81 H21         -3.3980    -2.6050     2.6650 hc         1 KVI       0.051200
     82 H22         -4.6400    -2.8720     1.4420 hc         1 KVI       0.051200
     83 H46         -4.5340    -5.3450     1.8640 hc         1 KVI       0.034700
     84 H47         -3.2990    -5.0800     3.0960 hc         1 KVI       0.034700
     85 H48         -5.5400    -5.3740     4.1430 hc         1 KVI       0.034367
     86 H49         -4.9340    -3.7330     4.4570 hc         1 KVI       0.034367
     87 H50         -6.1800    -4.0010     3.2150 hc         1 KVI       0.034367
     88 H23          0.3140    -2.8200     0.9740 hc         1 KVI       0.080200
     89 H24          0.9450    -3.4750    -0.5630 hc         1 KVI       0.080200
     90 H51          1.3960    -1.1810    -1.3640 hc         1 KVI       0.072700
     91 H52          1.3610     0.7960     0.0030 hc         1 KVI       0.053200
     92 H53         -0.2490     0.1370    -0.1700 hc         1 KVI       0.053200
     93 H54          0.0030    -0.8790     2.1930 hc         1 KVI       0.045200
     94 H55          1.5260    -0.0060     2.3270 hc         1 KVI       0.045200
     95 H56          0.3250     2.1630     1.9800 hc         1 KVI       0.038200
     96 H57         -1.2040     1.2980     1.8240 hc         1 KVI       0.038200
     97 H58         -0.9560     2.2370     4.1150 hc         1 KVI       0.032367
     98 H59         -0.9880     0.4620     4.1850 hc         1 KVI       0.032367
     99 H60          0.5560     1.3320     4.3480 hc         1 KVI       0.032367
    100 H35          3.4420    -1.1840    -1.6780 hn         1 KVI       0.329500
    101 H8           5.4300    -1.5590     0.5130 h1         1 KVI       0.088700
    102 H10          5.4220    -3.2960    -2.0250 hc         1 KVI       0.078200
    103 H11          6.6960    -3.2620    -0.8160 hc         1 KVI       0.078200
    104 H36          5.0620    -4.1040     0.9180 hc         1 KVI       0.058700
    105 H37          3.8330    -4.2390    -0.3910 hc         1 KVI       0.058700
    106 H38          3.9090    -5.9630    -1.8370 hn         1 KVI       0.312500
    107 H39          5.0690    -7.2720    -1.7130 hn         1 KVI       0.312500
    108 H25          7.6740    -1.1900    -0.2550 hn         1 KVI       0.327500
    109 H1           7.9880     0.6640    -2.5710 h1         1 KVI       0.076700
    110 H2           8.8810     1.4220     0.2640 hc         1 KVI       0.058700
    111 H3           9.2300     2.3330    -1.1990 hc         1 KVI       0.058700
    112 H4           6.7560     2.7170    -1.5370 hc         1 KVI       0.048200
    113 H5           6.4400     1.8880    -0.0080 hc         1 KVI       0.048200
    114 H6           7.8110     3.5880     1.2130 h1         1 KVI       0.052700
    115 H7           8.1220     4.4330    -0.3190 h1         1 KVI       0.052700
    116 H26          5.4640     4.4480    -0.3970 hn         1 KVI       0.467000
    117 H28          4.1400     5.2600     0.9870 hn         1 KVI       0.453000
    118 H29          4.4960     6.8520     1.4190 hn         1 KVI       0.453000
    119 H27          6.5520     7.2380     1.8290 hn         1 KVI       0.378400
    120 H30         10.4890     1.2900    -2.7440 hn         1 KVI       0.315500
    121 H31         11.5650    -0.0820    -2.5690 hn         1 KVI       0.315500
@<TRIPOS>BOND
     1     1     2 2   
     2     1     3 1   
     3     1     4 1   
     4     3    56 1   
     5     3    57 1   
     6     3    58 1   
     7     4     5 1   
     8     4    59 1   
     9     5     6 1   
    10     5     8 1   
    11     5    60 1   
    12     6     7 2   
    13     6    11 1   
    14     8     9 1   
    15     8    10 1   
    16     8    61 1   
    17     9    62 1   
    18    10    63 1   
    19    10    64 1   
    20    10    65 1   
    21    11    12 1   
    22    11    66 1   
    23    12    13 1   
    24    12    15 1   
    25    12    67 1   
    26    13    14 2   
    27    13    19 1   
    28    15    16 1   
    29    15    17 1   
    30    15    68 1   
    31    16    18 1   
    32    16    69 1   
    33    16    70 1   
    34    17    71 1   
    35    17    72 1   
    36    17    73 1   
    37    18    74 1   
    38    18    75 1   
    39    18    76 1   
    40    19    20 1   
    41    19    77 1   
    42    20    21 1   
    43    20    25 1   
    44    20    78 1   
    45    21    22 1   
    46    21    79 1   
    47    21    80 1   
    48    22    23 1   
    49    22    81 1   
    50    22    82 1   
    51    23    24 1   
    52    23    83 1   
    53    23    84 1   
    54    24    85 1   
    55    24    86 1   
    56    24    87 1   
    57    25    26 2   
    58    25    27 1   
    59    27    28 1   
    60    27    88 1   
    61    27    89 1   
    62    28    29 1   
    63    28    33 1   
    64    28    90 1   
    65    29    30 1   
    66    29    91 1   
    67    29    92 1   
    68    30    31 1   
    69    30    93 1   
    70    30    94 1   
    71    31    32 1   
    72    31    95 1   
    73    31    96 1   
    74    32    97 1   
    75    32    98 1   
    76    32    99 1   
    77    33    34 2   
    78    33    35 1   
    79    35    36 1   
    80    35   100 1   
    81    36    37 1   
    82    36    39 1   
    83    36   101 1   
    84    37    38 2   
    85    37    44 1   
    86    39    40 1   
    87    39   102 1   
    88    39   103 1   
    89    40    41 1   
    90    40   104 1   
    91    40   105 1   
    92    41    42 2   
    93    41    43 1   
    94    43   106 1   
    95    43   107 1   
    96    44    45 1   
    97    44   108 1   
    98    45    46 1   
    99    45    48 1   
   100    45   109 1   
   101    46    47 2   
   102    46    55 1   
   103    48    49 1   
   104    48   110 1   
   105    48   111 1   
   106    49    50 1   
   107    49   112 1   
   108    49   113 1   
   109    50    51 1   
   110    50   114 1   
   111    50   115 1   
   112    51    52 1   
   113    51   116 1   
   114    52    53 1   
   115    52    54 2   
   116    53   117 1   
   117    53   118 1   
   118    54   119 1   
   119    55   120 1   
   120    55   121 1   
@<TRIPOS>SUBSTRUCTURE
     1 KVI         1 TEMP              0 ****  ****    0 ROOT
