@<TRIPOS>MOLECULE
KVJ
   52    55     1     0     0
SMALL
No Charge or Current Charge


@<TRIPOS>ATOM
      1 C1           0.2350     5.6860   -17.7640 c5         1 KVJ       0.162300
      2 C2          -0.9230     6.1480   -19.6710 c          1 KVJ       0.710100
      3 C3          -0.8300     6.7620   -17.3770 c5         1 KVJ       0.088700
      4 O1          -1.2250     6.1000   -20.8510 o          1 KVJ      -0.502000
      5 O3          -3.1640    12.9860   -14.7330 os         1 KVJ      -0.444000
      6 C11         -3.9730    13.2540   -15.8990 c6         1 KVJ       0.139100
      7 C12         -3.3150    12.6680   -17.1830 c6         1 KVJ       0.188800
      8 C13         -3.3980    10.6180   -21.7480 cp         1 KVJ      -0.285500
      9 C14         -4.7470    11.0330   -21.8740 ca         1 KVJ       0.186900
     10 C15         -4.4050    11.5610   -24.0570 ca         1 KVJ       0.401900
     11 C16         -2.5790    10.7500   -22.9130 ca         1 KVJ       0.092300
     12 C17         -1.0710    10.4190   -22.9630 c3         1 KVJ       0.262700
     13 N           -1.2440     7.1500   -18.7480 n          1 KVJ      -0.438300
     14 C            0.4950     4.5170   -16.7900 c3         1 KVJ      -0.086100
     15 O           -0.2130     5.1770   -19.0340 os         1 KVJ      -0.413100
     16 C10         -2.9920    11.5700   -14.5010 c6         1 KVJ       0.139100
     17 C4          -2.0390     6.2620   -16.5320 c3         1 KVJ       0.151600
     18 C5          -1.8950     8.4090   -19.0330 ca         1 KVJ       0.318900
     19 C6          -2.3090     8.8280   -20.3100 ca         1 KVJ      -0.282000
     20 C7          -2.9110    10.0940   -20.4430 cp         1 KVJ       0.242500
     21 C8          -2.6950    10.4000   -18.1750 ca         1 KVJ       0.429900
     22 C9          -2.2790    10.8890   -15.7060 c6         1 KVJ       0.188800
     23 F           -0.4250    11.0750   -23.9570 f          1 KVJ      -0.100333
     24 F1          -0.4280    10.7520   -21.8190 f          1 KVJ      -0.100333
     25 F2          -0.8540     9.1010   -23.1710 f          1 KVJ      -0.100333
     26 N1          -3.1230    10.8620   -19.3640 nb         1 KVJ      -0.261000
     27 N2          -2.0890     9.2160   -17.9720 nb         1 KVJ      -0.318000
     28 N3          -2.9120    11.2210   -17.0350 nh         1 KVJ      -0.774300
     29 N4          -5.2550    11.5010   -23.0270 nb         1 KVJ      -0.235000
     30 N5          -4.9120    12.0270   -25.2260 nv         1 KVJ      -1.064900
     31 N6          -3.1090    11.2190   -24.0680 nb         1 KVJ      -0.227000
     32 H1           1.1940     6.1940   -17.9390 h1         1 KVJ       0.068700
     33 H2          -0.3520     7.5960   -16.8440 h1         1 KVJ       0.108700
     34 H3          -2.4830     5.8100   -14.6710 ho         1 KVJ       0.451000
     35 H4          -4.0990    14.3400   -16.0080 h1         1 KVJ       0.053450
     36 H5          -4.9690    12.8100   -15.7560 h1         1 KVJ       0.053450
     37 H6          -2.4330    13.2760   -17.4330 h1         1 KVJ       0.068200
     38 H7          -4.0370    12.7970   -18.0020 h1         1 KVJ       0.068200
     39 H8          -5.4350    10.9720   -21.0310 h4         1 KVJ       0.037100
     40 H9           0.8210     4.8880   -15.8110 hc         1 KVJ       0.056033
     41 H10         -0.4030     3.9060   -16.6420 hc         1 KVJ       0.056033
     42 H11          1.2840     3.8610   -17.1750 hc         1 KVJ       0.056033
     43 H12         -3.9770    11.1090   -14.3430 h1         1 KVJ       0.053450
     44 H13         -2.3990    11.4240   -13.5870 h1         1 KVJ       0.053450
     45 H14         -2.8520     6.9950   -16.6120 h1         1 KVJ       0.039200
     46 H15         -2.4090     5.3170   -16.9530 h1         1 KVJ       0.039200
     47 H16         -2.1940     8.2150   -21.1910 ha         1 KVJ       0.172000
     48 H17         -2.2960     9.8050   -15.5180 h1         1 KVJ       0.068200
     49 H18         -1.2230    11.1980   -15.7090 h1         1 KVJ       0.068200
     50 H19         -4.3760    11.8770   -26.0780 hn         1 KVJ       0.511500
     51 H20         -5.9230    12.0800   -25.3310 hn         1 KVJ       0.511500
     52 O2          -1.6750     6.1000   -15.1520 oh         1 KVJ      -0.663000
@<TRIPOS>BOND
     1     1     3 1   
     2     1    14 1   
     3     1    15 1   
     4     1    32 1   
     5     2     4 2   
     6     2    13 1   
     7     2    15 1   
     8     3    13 1   
     9     3    17 1   
    10     3    33 1   
    11     5     6 1   
    12     5    16 1   
    13     6     7 1   
    14     6    35 1   
    15     6    36 1   
    16     7    28 1   
    17     7    37 1   
    18     7    38 1   
    19     8     9 ar  
    20     8    11 ar  
    21     8    20 1   
    22     9    29 ar  
    23     9    39 1   
    24    10    29 ar  
    25    10    30 1   
    26    10    31 ar  
    27    11    12 1   
    28    11    31 ar  
    29    12    23 1   
    30    12    24 1   
    31    12    25 1   
    32    13    18 1   
    33    14    40 1   
    34    14    41 1   
    35    14    42 1   
    36    16    22 1   
    37    16    43 1   
    38    16    44 1   
    39    17    45 1   
    40    17    46 1   
    41    17    52 1   
    42    18    19 ar  
    43    18    27 ar  
    44    19    20 ar  
    45    19    47 1   
    46    20    26 ar  
    47    21    26 ar  
    48    21    27 ar  
    49    21    28 1   
    50    22    28 1   
    51    22    48 1   
    52    22    49 1   
    53    30    50 1   
    54    30    51 1   
    55    34    52 1   
@<TRIPOS>SUBSTRUCTURE
     1 KVJ         1 TEMP              0 ****  ****    0 ROOT
