@<TRIPOS>MOLECULE
KVJ
   52    55     1     0     0
SMALL
abcg2


@<TRIPOS>ATOM
      1 C1           0.1310     5.7400   -17.7720 c5         1 KVJ       0.162300
      2 C2          -1.1820     6.1320   -19.5840 c          1 KVJ       0.710100
      3 C3          -0.8550     6.8480   -17.3890 c5         1 KVJ       0.088700
      4 O1          -1.6150     6.0030   -20.6970 o          1 KVJ      -0.502000
      5 O3          -3.4330    12.7130   -14.8180 os         1 KVJ      -0.444000
      6 C11         -4.0010    13.0110   -16.0720 c6         1 KVJ       0.139100
      7 C12         -3.0740    12.6330   -17.2140 c6         1 KVJ       0.188800
      8 C13         -3.3310    10.5970   -21.6840 cp         1 KVJ      -0.285500
      9 C14         -4.6700    10.9760   -21.8040 ca         1 KVJ       0.186900
     10 C15         -4.4020    11.5120   -23.9810 ca         1 KVJ       0.401900
     11 C16         -2.5860    10.7830   -22.8410 ca         1 KVJ       0.092300
     12 C17         -1.0950    10.5130   -22.8890 c3         1 KVJ       0.262700
     13 N           -1.3500     7.1910   -18.7190 n          1 KVJ      -0.438300
     14 C            0.3830     4.6210   -16.7950 c3         1 KVJ      -0.086100
     15 O           -0.4430     5.2040   -18.9840 os         1 KVJ      -0.413100
     16 C10         -3.1450    11.3380   -14.7130 c6         1 KVJ       0.139100
     17 C4          -2.0000     6.4390   -16.4710 c3         1 KVJ       0.151600
     18 C5          -1.9230     8.4160   -19.0100 ca         1 KVJ       0.318900
     19 C6          -2.3500     8.7880   -20.2870 ca         1 KVJ      -0.282000
     20 C7          -2.8390    10.0790   -20.3900 cp         1 KVJ       0.242500
     21 C8          -2.5500    10.4380   -18.1750 ca         1 KVJ       0.429900
     22 C9          -2.1770    10.8770   -15.7890 c6         1 KVJ       0.188800
     23 F           -0.5040    11.1720   -23.8790 f          1 KVJ      -0.100333
     24 F1          -0.4980    10.8770   -21.7510 f          1 KVJ      -0.100333
     25 F2          -0.8490     9.2110   -23.0770 f          1 KVJ      -0.100333
     26 N1          -2.9600    10.9040   -19.3590 nb         1 KVJ      -0.261000
     27 N2          -2.0110     9.2340   -17.9790 nb         1 KVJ      -0.318000
     28 N3          -2.6920    11.2380   -17.0960 nh         1 KVJ      -0.774300
     29 N4          -5.2110    11.4190   -22.9150 nb         1 KVJ      -0.235000
     30 N5          -4.9320    11.9420   -25.1290 nv         1 KVJ      -1.064900
     31 N6          -3.0960    11.2270   -23.9690 nb         1 KVJ      -0.227000
     32 H1           1.0840     6.2030   -18.0470 h1         1 KVJ       0.068700
     33 H2          -0.3270     7.6950   -16.9530 h1         1 KVJ       0.108700
     34 H3          -2.1380     5.9800   -14.5920 ho         1 KVJ       0.451000
     35 H4          -4.1970    14.0830   -16.0990 h1         1 KVJ       0.053450
     36 H5          -4.9600    12.4870   -16.1950 h1         1 KVJ       0.053450
     37 H6          -2.1780    13.2660   -17.1950 h1         1 KVJ       0.068200
     38 H7          -3.5780    12.8010   -18.1620 h1         1 KVJ       0.068200
     39 H8          -5.3240    10.9000   -20.9410 h4         1 KVJ       0.037100
     40 H9           0.8520     5.0150   -15.8960 hc         1 KVJ       0.056033
     41 H10         -0.5290     4.1000   -16.5090 hc         1 KVJ       0.056033
     42 H11          1.0690     3.8980   -17.2360 hc         1 KVJ       0.056033
     43 H12         -4.0670    10.7430   -14.7770 h1         1 KVJ       0.053450
     44 H13         -2.7040    11.1680   -13.7300 h1         1 KVJ       0.053450
     45 H14         -2.8100     7.1700   -16.5720 h1         1 KVJ       0.039200
     46 H15         -2.4050     5.4680   -16.7830 h1         1 KVJ       0.039200
     47 H16         -2.3180     8.1300   -21.1370 ha         1 KVJ       0.172000
     48 H17         -2.0490     9.8000   -15.7210 h1         1 KVJ       0.068200
     49 H18         -1.1950    11.3390   -15.6330 h1         1 KVJ       0.068200
     50 H19         -4.3760    11.9760   -25.9650 hn         1 KVJ       0.511500
     51 H20         -5.9190    12.1180   -25.1970 hn         1 KVJ       0.511500
     52 O2          -1.4920     6.4100   -15.1600 oh         1 KVJ      -0.663000
@<TRIPOS>BOND
     1     1     3 1   
     2     1    14 1   
     3     1    15 1   
     4     1    32 1   
     5     2     4 2   
     6     2    13 1   
     7     2    15 1   
     8     3    13 1   
     9     3    17 1   
    10     3    33 1   
    11     5     6 1   
    12     5    16 1   
    13     6     7 1   
    14     6    35 1   
    15     6    36 1   
    16     7    28 1   
    17     7    37 1   
    18     7    38 1   
    19     8     9 ar  
    20     8    11 ar  
    21     8    20 1   
    22     9    29 ar  
    23     9    39 1   
    24    10    29 ar  
    25    10    30 1   
    26    10    31 ar  
    27    11    12 1   
    28    11    31 ar  
    29    12    23 1   
    30    12    24 1   
    31    12    25 1   
    32    13    18 1   
    33    14    40 1   
    34    14    41 1   
    35    14    42 1   
    36    16    22 1   
    37    16    43 1   
    38    16    44 1   
    39    17    45 1   
    40    17    46 1   
    41    17    52 1   
    42    18    19 ar  
    43    18    27 ar  
    44    19    20 ar  
    45    19    47 1   
    46    20    26 ar  
    47    21    26 ar  
    48    21    27 ar  
    49    21    28 1   
    50    22    28 1   
    51    22    48 1   
    52    22    49 1   
    53    30    50 1   
    54    30    51 1   
    55    34    52 1   
@<TRIPOS>SUBSTRUCTURE
     1 KVJ         1 TEMP              0 ****  ****    0 ROOT
