@<TRIPOS>MOLECULE
KVK
   60    62     1     0     0
SMALL
abcg2


@<TRIPOS>ATOM
      1 C1         -74.5390    49.7480   -21.2180 c2         1 KVK       0.254800
      2 C2         -73.6610    48.7160   -21.2850 ce         1 KVK      -0.396300
      3 C7         -72.0540    51.2980   -18.8820 c3         1 KVK       0.245500
      4 C8         -71.8560    52.7970   -19.0900 c3         1 KVK      -0.107600
      5 C9         -72.8510    50.9960   -17.6130 c3         1 KVK      -0.107600
      6 C12        -73.7270    47.3760   -21.9040 ca         1 KVK       0.001200
      7 C13        -73.7660    46.2320   -21.1000 ca         1 KVK      -0.095000
      8 C14        -73.8350    44.9680   -21.6710 ca         1 KVK      -0.116000
      9 C15        -73.8590    44.8280   -23.0550 ca         1 KVK      -0.110000
     10 C16        -73.8020    45.9570   -23.8650 ca         1 KVK      -0.116000
     11 N18        -75.7920    49.8510   -21.6820 nu         1 KVK      -0.785200
     12 C19        -76.5790    48.7430   -22.1990 c3         1 KVK       0.221800
     13 C20        -76.9510    47.7180   -21.1270 c3         1 KVK      -0.103400
     14 C21        -77.4210    46.4090   -21.7470 c3         1 KVK      -0.073400
     15 C22        -77.7250    45.3370   -20.6910 c3         1 KVK      -0.123700
     16 C24        -77.3110    42.9960   -21.5560 ca         1 KVK      -0.110000
     17 C27        -79.8670    42.9320   -22.3870 ca         1 KVK       0.164900
     18 S3         -72.1610    49.1680   -20.5350 sy         1 KVK       1.193200
     19 N4         -72.6470    50.6820   -20.0900 n3         1 KVK      -0.790500
     20 C5         -73.9950    50.9840   -20.5170 c5         1 KVK       0.463700
     21 O6         -74.0560    52.0620   -21.4410 oh         1 KVK      -0.646000
     22 O10        -71.8410    48.3650   -19.3630 o          1 KVK      -0.542500
     23 O11        -71.0770    49.2330   -21.5030 o          1 KVK      -0.542500
     24 C17        -73.7300    47.2230   -23.2930 ca         1 KVK      -0.095000
     25 C23        -78.1850    44.0670   -21.3370 ca         1 KVK       0.338300
     26 C25        -77.7650    41.8680   -22.2190 ca         1 KVK      -0.087000
     27 C26        -79.0860    41.8230   -22.6570 ca         1 KVK      -0.077000
     28 N28        -79.4520    44.0210   -21.7570 nb         1 KVK      -0.603000
     29 N30        -82.4240    42.9550   -21.5110 n8         1 KVK      -1.055100
     30 O31        -81.8120    44.2690   -23.5310 o          1 KVK      -0.547000
     31 O32        -81.8440    41.7690   -23.6460 o          1 KVK      -0.547000
     32 H1         -71.0690    50.8400   -18.7820 h1         1 KVK       0.074700
     33 H2         -71.3060    52.9950   -20.0090 hc         1 KVK       0.045033
     34 H3         -72.8120    53.3220   -19.1330 hc         1 KVK       0.045033
     35 H4         -71.2930    53.2070   -18.2490 hc         1 KVK       0.045033
     36 H5         -73.0070    49.9240   -17.4960 hc         1 KVK       0.045033
     37 H6         -72.3020    51.3650   -16.7450 hc         1 KVK       0.045033
     38 H7         -73.8230    51.4940   -17.6230 hc         1 KVK       0.045033
     39 H8         -73.7610    46.3420   -20.0230 ha         1 KVK       0.123000
     40 H9         -73.8790    44.0930   -21.0350 ha         1 KVK       0.112000
     41 H10        -73.9230    43.8430   -23.5000 ha         1 KVK       0.110000
     42 H11        -73.8140    45.8540   -24.9420 ha         1 KVK       0.112000
     43 H12        -76.2750    50.7110   -21.4780 hn         1 KVK       0.493000
     44 H13        -77.4760    49.1640   -22.6520 h1         1 KVK       0.064700
     45 H14        -76.0160    48.2550   -22.9940 h1         1 KVK       0.064700
     46 H15        -76.0750    47.5200   -20.5070 hc         1 KVK       0.050200
     47 H16        -77.7180    48.1340   -20.4680 hc         1 KVK       0.050200
     48 H17        -78.3120    46.5760   -22.3600 hc         1 KVK       0.055200
     49 H18        -76.6410    46.0310   -22.4150 hc         1 KVK       0.055200
     50 H19        -76.8230    45.1470   -20.1050 hc         1 KVK       0.058200
     51 H20        -78.5030    45.7000   -20.0160 hc         1 KVK       0.058200
     52 H21        -76.2880    43.0630   -21.2090 ha         1 KVK       0.128000
     53 H22        -74.1310    52.8900   -20.9510 ho         1 KVK       0.455000
     54 H25        -73.6800    48.1020   -23.9220 ha         1 KVK       0.123000
     55 H26        -77.1030    41.0310   -22.3980 ha         1 KVK       0.126000
     56 H27        -79.4880    40.9700   -23.1820 ha         1 KVK       0.150000
     57 H28        -82.9750    43.7860   -21.3380 hn         1 KVK       0.495500
     58 H29        -82.9050    42.0820   -21.3310 hn         1 KVK       0.495500
     59 H30        -74.6190    51.2160   -19.6510 h2         1 KVK       0.050700
     60 S29        -81.5840    42.9850   -22.9110 sy         1 KVK       1.115200
@<TRIPOS>BOND
     1     1     2 2   
     2     1    11 1   
     3     1    20 1   
     4     2     6 1   
     5     2    18 1   
     6     3     4 1   
     7     3     5 1   
     8     3    19 1   
     9     3    32 1   
    10     4    33 1   
    11     4    34 1   
    12     4    35 1   
    13     5    36 1   
    14     5    37 1   
    15     5    38 1   
    16     6     7 ar  
    17     6    24 ar  
    18     7     8 ar  
    19     7    39 1   
    20     8     9 ar  
    21     8    40 1   
    22     9    10 ar  
    23     9    41 1   
    24    10    24 ar  
    25    10    42 1   
    26    11    12 1   
    27    11    43 1   
    28    12    13 1   
    29    12    44 1   
    30    12    45 1   
    31    13    14 1   
    32    13    46 1   
    33    13    47 1   
    34    14    15 1   
    35    14    48 1   
    36    14    49 1   
    37    15    25 1   
    38    15    50 1   
    39    15    51 1   
    40    16    25 ar  
    41    16    26 ar  
    42    16    52 1   
    43    17    27 ar  
    44    17    28 ar  
    45    17    60 1   
    46    18    19 1   
    47    18    22 2   
    48    18    23 2   
    49    19    20 1   
    50    20    21 1   
    51    20    59 1   
    52    21    53 1   
    53    24    54 1   
    54    25    28 ar  
    55    26    27 ar  
    56    26    55 1   
    57    27    56 1   
    58    29    57 1   
    59    29    58 1   
    60    29    60 1   
    61    30    60 2   
    62    31    60 2   
@<TRIPOS>SUBSTRUCTURE
     1 KVK         1 TEMP              0 ****  ****    0 ROOT
