@<TRIPOS>MOLECULE
KVK
   60    62     1     0     0
SMALL
No Charge or Current Charge


@<TRIPOS>ATOM
      1 C1         -74.4380    49.8050   -21.1490 c2         1 KVK       0.254800
      2 C2         -73.5520    48.7860   -21.1380 ce         1 KVK      -0.396300
      3 C7         -71.9880    51.4470   -18.7340 c3         1 KVK       0.245500
      4 C8         -71.6950    52.9380   -19.0070 c3         1 KVK      -0.107600
      5 C9         -72.8000    51.2890   -17.4250 c3         1 KVK      -0.107600
      6 C12        -73.5540    47.4780   -21.8460 ca         1 KVK       0.001200
      7 C13        -73.8060    46.2880   -21.1380 ca         1 KVK      -0.095000
      8 C14        -73.8060    45.0520   -21.8060 ca         1 KVK      -0.116000
      9 C15        -73.5440    44.9980   -23.1850 ca         1 KVK      -0.110000
     10 C16        -73.2730    46.1810   -23.8940 ca         1 KVK      -0.116000
     11 N18        -75.6500    49.8430   -21.8690 nu         1 KVK      -0.785200
     12 C19        -76.3590    48.7170   -22.4990 c3         1 KVK       0.221800
     13 C20        -76.9600    47.7730   -21.4360 c3         1 KVK      -0.103400
     14 C21        -77.4740    46.4490   -22.0410 c3         1 KVK      -0.073400
     15 C22        -78.0010    45.4600   -20.9770 c3         1 KVK      -0.123700
     16 C24        -77.5310    43.1790   -22.0090 ca         1 KVK      -0.110000
     17 C27        -80.2640    42.7990   -22.2520 ca         1 KVK       0.164900
     18 S3         -72.1490    49.1630   -20.1500 sy         1 KVK       1.193200
     19 N4         -72.5900    50.7650   -19.9070 n3         1 KVK      -0.790500
     20 C5         -73.9790    51.0370   -20.2830 c5         1 KVK       0.463700
     21 O6         -73.9300    52.2180   -21.0410 oh         1 KVK      -0.646000
     22 O10        -72.2630    48.4370   -18.8830 o          1 KVK      -0.542500
     23 O11        -70.9430    49.1350   -20.9850 o          1 KVK      -0.542500
     24 C17        -73.2710    47.4180   -23.2240 ca         1 KVK      -0.095000
     25 C23        -78.4630    44.1440   -21.5850 ca         1 KVK       0.338300
     26 C25        -77.9930    41.9790   -22.5720 ca         1 KVK      -0.087000
     27 C26        -79.3800    41.7880   -22.6930 ca         1 KVK      -0.077000
     28 N28        -79.8000    43.9660   -21.7010 nb         1 KVK      -0.603000
     29 N30        -82.5540    41.8160   -21.0080 n8         1 KVK      -1.055100
     30 O31        -82.8310    43.7880   -22.3880 o          1 KVK      -0.547000
     31 O32        -82.3790    41.4900   -23.4070 o          1 KVK      -0.547000
     32 H1         -71.0030    50.9950   -18.5450 h1         1 KVK       0.074700
     33 H2         -71.1270    53.0540   -19.9370 hc         1 KVK       0.045033
     34 H3         -72.6210    53.5200   -19.0850 hc         1 KVK       0.045033
     35 H4         -71.0980    53.3640   -18.1920 hc         1 KVK       0.045033
     36 H5         -73.0160    50.2390   -17.2060 hc         1 KVK       0.045033
     37 H6         -72.2330    51.6950   -16.5780 hc         1 KVK       0.045033
     38 H7         -73.7510    51.8310   -17.4800 hc         1 KVK       0.045033
     39 H8         -74.0110    46.3250   -20.0710 ha         1 KVK       0.123000
     40 H9         -74.0070    44.1360   -21.2540 ha         1 KVK       0.112000
     41 H10        -73.5450    44.0410   -23.7030 ha         1 KVK       0.110000
     42 H11        -73.0630    46.1410   -24.9600 ha         1 KVK       0.112000
     43 H12        -76.0970    50.7610   -21.9310 hn         1 KVK       0.493000
     44 H13        -77.1770    49.0980   -23.1250 h1         1 KVK       0.064700
     45 H14        -75.6920    48.1610   -23.1660 h1         1 KVK       0.064700
     46 H15        -76.2070    47.5460   -20.6750 hc         1 KVK       0.050200
     47 H16        -77.7810    48.2880   -20.9210 hc         1 KVK       0.050200
     48 H17        -78.2730    46.6640   -22.7630 hc         1 KVK       0.055200
     49 H18        -76.6590    45.9710   -22.6010 hc         1 KVK       0.055200
     50 H19        -77.2070    45.2620   -20.2470 hc         1 KVK       0.058200
     51 H20        -78.8190    45.9330   -20.4190 hc         1 KVK       0.058200
     52 H21        -76.4650    43.3620   -21.9010 ha         1 KVK       0.128000
     53 H22        -72.9810    52.2520   -21.2730 ho         1 KVK       0.455000
     54 H25        -73.0610    48.3320   -23.7730 ha         1 KVK       0.123000
     55 H26        -77.2940    41.2150   -22.9060 ha         1 KVK       0.126000
     56 H27        -79.7670    40.8660   -23.1220 ha         1 KVK       0.150000
     57 H28        -83.1800    42.5360   -20.6530 hn         1 KVK       0.495500
     58 H29        -83.2080    41.1220   -21.3650 hn         1 KVK       0.495500
     59 H30        -74.6230    51.1680   -19.4050 h2         1 KVK       0.050700
     60 S29        -82.0890    42.5260   -22.4140 sy         1 KVK       1.115200
@<TRIPOS>BOND
     1     1     2 2   
     2     1    11 1   
     3     1    20 1   
     4     2     6 1   
     5     2    18 1   
     6     3     4 1   
     7     3     5 1   
     8     3    19 1   
     9     3    32 1   
    10     4    33 1   
    11     4    34 1   
    12     4    35 1   
    13     5    36 1   
    14     5    37 1   
    15     5    38 1   
    16     6     7 ar  
    17     6    24 ar  
    18     7     8 ar  
    19     7    39 1   
    20     8     9 ar  
    21     8    40 1   
    22     9    10 ar  
    23     9    41 1   
    24    10    24 ar  
    25    10    42 1   
    26    11    12 1   
    27    11    43 1   
    28    12    13 1   
    29    12    44 1   
    30    12    45 1   
    31    13    14 1   
    32    13    46 1   
    33    13    47 1   
    34    14    15 1   
    35    14    48 1   
    36    14    49 1   
    37    15    25 1   
    38    15    50 1   
    39    15    51 1   
    40    16    25 ar  
    41    16    26 ar  
    42    16    52 1   
    43    17    27 ar  
    44    17    28 ar  
    45    17    60 1   
    46    18    19 1   
    47    18    22 2   
    48    18    23 2   
    49    19    20 1   
    50    20    21 1   
    51    20    59 1   
    52    21    53 1   
    53    24    54 1   
    54    25    28 ar  
    55    26    27 ar  
    56    26    55 1   
    57    27    56 1   
    58    29    57 1   
    59    29    58 1   
    60    29    60 1   
    61    30    60 2   
    62    31    60 2   
@<TRIPOS>SUBSTRUCTURE
     1 KVK         1 TEMP              0 ****  ****    0 ROOT
