@<TRIPOS>MOLECULE
KVM
   16    16     1     0     0
SMALL
abcg2


@<TRIPOS>ATOM
      1 OAH          2.4240    -1.3040     0.1200 o          1 KVM      -0.907167
      2 PAG          1.5300    -0.1000     0.4040 p5         1 KVM       1.275500
      3 OAI          0.6340    -0.2430     1.6350 o          1 KVM      -0.907167
      4 OAJ          2.2110     1.2540     0.2510 o          1 KVM      -0.907167
      5 CAF          0.2360    -0.1730    -1.0100 c5         1 KVM      -0.430700
      6 CAE         -0.5440    -1.4790    -0.8750 c5         1 KVM      -0.103400
      7 CAB         -1.7180    -1.1150    -0.0130 c          1 KVM       0.610000
      8 OAA         -2.4770    -1.8290     0.6000 o          1 KVM      -0.592000
      9 NAC         -1.8270     0.2490    -0.1030 n          1 KVM      -0.259900
     10 OAD         -2.8410     0.9320     0.4690 oh         1 KVM      -0.455100
     11 CAK         -0.7610     0.8820    -0.7340 c          1 KVM       0.621000
     12 OAL         -0.7270     2.0750    -0.9270 o          1 KVM      -0.562000
     13 H3           0.7190    -0.0360    -1.9780 hc         1 KVM       0.073700
     14 H4          -0.9370    -1.8240    -1.8370 hc         1 KVM       0.052200
     15 H5           0.0310    -2.2950    -0.4420 hc         1 KVM       0.052200
     16 H6          -2.5420     1.1840     1.3550 ho         1 KVM       0.440000
@<TRIPOS>BOND
     1     1     2 1   
     2     2     3 1   
     3     2     4 1   
     4     2     5 1   
     5     5     6 1   
     6     5    11 1   
     7     5    13 1   
     8     6     7 1   
     9     6    14 1   
    10     6    15 1   
    11     7     8 2   
    12     7     9 1   
    13     9    10 1   
    14     9    11 1   
    15    10    16 1   
    16    11    12 2   
@<TRIPOS>SUBSTRUCTURE
     1 KVM         1 TEMP              0 ****  ****    0 ROOT
