@<TRIPOS>MOLECULE
KVM
   16    16     1     0     0
SMALL
No Charge or Current Charge


@<TRIPOS>ATOM
      1 OAH          2.3830    -1.2670     0.2560 o          1 KVM      -0.907167
      2 PAG          1.4860    -0.0860     0.3850 p5         1 KVM       1.275500
      3 OAI          0.7240    -0.1140     1.6620 o          1 KVM      -0.907167
      4 OAJ          2.2390     1.1860     0.2120 o          1 KVM      -0.907167
      5 CAF          0.2870    -0.1960    -0.9930 c5         1 KVM      -0.430700
      6 CAE         -0.5660    -1.5180    -0.9340 c5         1 KVM      -0.103400
      7 CAB         -1.7440    -1.1570    -0.0100 c          1 KVM       0.610000
      8 OAA         -2.3960    -1.8570     0.7600 o          1 KVM      -0.592000
      9 NAC         -1.8020     0.2340    -0.1060 n          1 KVM      -0.259900
     10 OAD         -2.9090     0.9810     0.4850 oh         1 KVM      -0.455100
     11 CAK         -0.7240     0.8990    -0.7080 c          1 KVM       0.621000
     12 OAL         -0.7170     2.0750    -1.0490 o          1 KVM      -0.562000
     13 H3           0.8230    -0.0120    -1.9270 hc         1 KVM       0.073700
     14 H4          -0.9860    -1.7020    -1.9300 hc         1 KVM       0.052200
     15 H5          -0.0490    -2.4270    -0.6060 hc         1 KVM       0.052200
     16 H6          -2.6370     1.1380     1.4180 ho         1 KVM       0.440000
@<TRIPOS>BOND
     1     1     2 1   
     2     2     3 1   
     3     2     4 1   
     4     2     5 1   
     5     5     6 1   
     6     5    11 1   
     7     5    13 1   
     8     6     7 1   
     9     6    14 1   
    10     6    15 1   
    11     7     8 2   
    12     7     9 1   
    13     9    10 1   
    14     9    11 1   
    15    10    16 1   
    16    11    12 2   
@<TRIPOS>SUBSTRUCTURE
     1 KVM         1 TEMP              0 ****  ****    0 ROOT
