@<TRIPOS>MOLECULE
KVN
   38    40     1     0     0
SMALL
bcc


@<TRIPOS>ATOM
      1 C7          -4.7060     0.0410     0.8670 ca         1 KVN      -0.091500
      2 C8          -6.0070    -0.2870     0.5180 ca         1 KVN      -0.138000
      3 N1          -0.2840     0.5370     0.2850 na         1 KVN       0.270900
      4 C4          -2.2990     0.1930     0.3290 cc         1 KVN       0.557500
      5 C6          -3.6660    -0.1610    -0.0380 ca         1 KVN      -0.128500
      6 C9          -6.2800    -0.8210    -0.7350 ca         1 KVN      -0.112000
      7 C10         -5.2450    -1.0260    -1.6390 ca         1 KVN      -0.138000
      8 C11         -3.9430    -0.6980    -1.2950 ca         1 KVN      -0.091500
      9 O5           1.6120    -0.6890    -0.0560 os         1 KVN      -0.391600
     10 C5           2.9050    -0.8000    -0.6330 c6         1 KVN       0.154100
     11 C12          3.8760     0.1260     0.1020 c6         1 KVN       0.119100
     12 C3           3.3340     1.5520     0.1030 c6         1 KVN       0.109100
     13 C2           1.9130     1.5880     0.6590 c6         1 KVN       0.084100
     14 C1           1.0890     0.5970    -0.1650 c6         1 KVN       0.249800
     15 O2           1.4200     2.8940     0.5380 oh         1 KVN      -0.594800
     16 O3           4.2070     2.3360     0.8730 oh         1 KVN      -0.598800
     17 O4           5.1150     0.0540    -0.5530 oh         1 KVN      -0.592800
     18 N5          -1.2600     0.1130    -0.4770 nd         1 KVN      -0.493800
     19 N3          -1.9340     0.6600     1.5410 nc         1 KVN      -0.375000
     20 N2          -0.6650     0.8640     1.4880 nd         1 KVN      -0.188800
     21 H1          -4.5000     0.4580     1.8440 ha         1 KVN       0.148500
     22 H2          -6.8090    -0.1250     1.2260 ha         1 KVN       0.134000
     23 H3          -7.2950    -1.0750    -1.0080 ha         1 KVN       0.131000
     24 H4          -5.4520    -1.4440    -2.6150 ha         1 KVN       0.134000
     25 H5          -3.1430    -0.8620    -2.0050 ha         1 KVN       0.148500
     26 H6           2.8630    -0.4980    -1.6920 h1         1 KVN       0.068700
     27 H7           3.9580    -0.2140     1.1470 h1         1 KVN       0.058700
     28 H8           3.3040     1.9050    -0.9400 h1         1 KVN       0.055700
     29 H9           1.9380     1.2540     1.7030 h1         1 KVN       0.081700
     30 H10          1.0510     0.9260    -1.2120 h2         1 KVN       0.085700
     31 H11          0.7810     3.0550     1.2390 ho         1 KVN       0.432000
     32 H12          4.0010     3.2640     0.7250 ho         1 KVN       0.429000
     33 H13          5.7300     0.6410    -0.1020 ho         1 KVN       0.429000
     34 H16          2.7360    -3.9390    -1.2790 ho         1 KVN       0.409000
     35 C13          3.3210    -2.2510    -0.5380 c3         1 KVN       0.149400
     36 O6           2.4420    -3.0250    -1.3180 oh         1 KVN      -0.586800
     37 H14          4.3560    -2.3370    -0.8840 h1         1 KVN       0.040200
     38 H15          3.3080    -2.5540     0.5180 h1         1 KVN       0.040200
@<TRIPOS>BOND
     1     1     2 ar  
     2     1     5 ar  
     3     1    21 1   
     4     2     6 ar  
     5     2    22 1   
     6     3    14 1   
     7     3    18 1   
     8     3    20 1   
     9     4     5 1   
    10     4    18 2   
    11     4    19 1   
    12     5     8 ar  
    13     6     7 ar  
    14     6    23 1   
    15     7     8 ar  
    16     7    24 1   
    17     8    25 1   
    18     9    10 1   
    19     9    14 1   
    20    10    11 1   
    21    10    26 1   
    22    10    35 1   
    23    11    12 1   
    24    11    17 1   
    25    11    27 1   
    26    12    13 1   
    27    12    16 1   
    28    12    28 1   
    29    13    14 1   
    30    13    15 1   
    31    13    29 1   
    32    14    30 1   
    33    15    31 1   
    34    16    32 1   
    35    17    33 1   
    36    19    20 2   
    37    34    36 1   
    38    35    36 1   
    39    35    37 1   
    40    35    38 1   
@<TRIPOS>SUBSTRUCTURE
     1 KVN         1 TEMP              0 ****  ****    0 ROOT
