@<TRIPOS>MOLECULE
KVN
   38    40     1     0     0
SMALL
No Charge or Current Charge


@<TRIPOS>ATOM
      1 C7          -4.7460    -0.2910     0.9780 ca         1 KVN      -0.073500
      2 C8          -6.1070    -0.4010     0.6440 ca         1 KVN      -0.120000
      3 N1          -0.3000     0.1760     0.2390 na         1 KVN       0.241600
      4 C4          -2.3320    -0.0210     0.3090 cc         1 KVN       0.557500
      5 C6          -3.7640    -0.1380    -0.0310 ca         1 KVN      -0.128500
      6 C9          -6.5110    -0.3610    -0.6990 ca         1 KVN      -0.094000
      7 C10         -5.5500    -0.2090    -1.7110 ca         1 KVN      -0.120000
      8 C11         -4.1880    -0.0990    -1.3810 ca         1 KVN      -0.073500
      9 O5           1.8140    -0.9030    -0.0090 os         1 KVN      -0.438000
     10 C5           3.1640    -0.9280    -0.5420 c6         1 KVN       0.177300
     11 C12          4.0100     0.2040     0.1210 c6         1 KVN       0.142300
     12 C3           3.3020     1.5730    -0.1030 c6         1 KVN       0.132300
     13 C2           1.8390     1.5330     0.4260 c6         1 KVN       0.107300
     14 C1           1.0940     0.3340    -0.2590 c6         1 KVN       0.302300
     15 O2           1.2030     2.8140     0.1770 oh         1 KVN      -0.717000
     16 O3           4.0340     2.6320     0.5370 oh         1 KVN      -0.661000
     17 O4           5.3490     0.2630    -0.4040 oh         1 KVN      -0.715000
     18 N5          -1.3840     0.1240    -0.5890 nd         1 KVN      -0.493800
     19 N3          -1.9110    -0.0560     1.6070 nc         1 KVN      -0.375000
     20 N2          -0.6160     0.0660     1.5710 nd         1 KVN      -0.188800
     21 H1          -4.4630    -0.3260     2.0280 ha         1 KVN       0.130500
     22 H2          -6.8500    -0.5180     1.4300 ha         1 KVN       0.116000
     23 H3          -7.5650    -0.4460    -0.9550 ha         1 KVN       0.113000
     24 H4          -5.8610    -0.1780    -2.7530 ha         1 KVN       0.116000
     25 H5          -3.4640     0.0180    -2.1850 ha         1 KVN       0.130500
     26 H6           3.1200    -0.7640    -1.6290 h1         1 KVN       0.068700
     27 H7           4.0460     0.0100     1.2040 h1         1 KVN       0.058700
     28 H8           3.2600     1.7610    -1.1880 h1         1 KVN       0.055700
     29 H9           1.8780     1.3330     1.5090 h1         1 KVN       0.081700
     30 H10          1.0150     0.5110    -1.3410 h2         1 KVN       0.085700
     31 H11          0.4060     2.8760     0.7580 ho         1 KVN       0.531000
     32 H12          3.4060     3.3920     0.5680 ho         1 KVN       0.468000
     33 H13          5.6750     1.1650    -0.1620 ho         1 KVN       0.528000
     34 H16          3.3920    -4.2640    -0.5810 ho         1 KVN       0.508000
     35 C13          3.7660    -2.3500    -0.2900 c3         1 KVN       0.172600
     36 O6           2.9640    -3.4160    -0.8430 oh         1 KVN      -0.709000
     37 H14          4.7740    -2.3780    -0.7240 h1         1 KVN       0.040200
     38 H15          3.8760    -2.4850     0.7950 h1         1 KVN       0.040200
@<TRIPOS>BOND
     1     1     2 ar  
     2     1     5 ar  
     3     1    21 1   
     4     2     6 ar  
     5     2    22 1   
     6     3    14 1   
     7     3    18 1   
     8     3    20 1   
     9     4     5 1   
    10     4    18 2   
    11     4    19 1   
    12     5     8 ar  
    13     6     7 ar  
    14     6    23 1   
    15     7     8 ar  
    16     7    24 1   
    17     8    25 1   
    18     9    10 1   
    19     9    14 1   
    20    10    11 1   
    21    10    26 1   
    22    10    35 1   
    23    11    12 1   
    24    11    17 1   
    25    11    27 1   
    26    12    13 1   
    27    12    16 1   
    28    12    28 1   
    29    13    14 1   
    30    13    15 1   
    31    13    29 1   
    32    14    30 1   
    33    15    31 1   
    34    16    32 1   
    35    17    33 1   
    36    19    20 2   
    37    34    36 1   
    38    35    36 1   
    39    35    37 1   
    40    35    38 1   
@<TRIPOS>SUBSTRUCTURE
     1 KVN         1 TEMP              0 ****  ****    0 ROOT
