@<TRIPOS>MOLECULE
KVO
   34    35     1     0     0
SMALL
No Charge or Current Charge


@<TRIPOS>ATOM
      1 N1           8.0000     0.1360    21.0530 ns         1 KVO      -0.167000
      2 C4           8.0280     0.6540    18.6110 ca         1 KVO       0.377300
      3 C5           9.5470     0.6300    18.5040 c3         1 KVO      -0.146400
      4 C6           7.3290     0.3820    19.8220 ca         1 KVO      -0.103000
      5 C7           8.9720     0.8830    21.7000 c          1 KVO       0.596100
      6 C8           9.5650     0.2230    22.9490 c3         1 KVO      -0.108100
      7 C10         12.1080     0.3300    22.8480 ca         1 KVO      -0.088000
      8 C13         12.2430    -2.2560    21.7630 ca         1 KVO       0.126000
      9 Cl          12.3260    -3.8740    21.0790 cl         1 KVO      -0.213000
     10 C12         13.4240    -1.5310    21.9910 ca         1 KVO      -0.097000
     11 C11         13.3560    -0.2360    22.5340 ca         1 KVO      -0.099000
     12 C14         10.9960    -1.6920    22.0780 ca         1 KVO      -0.097000
     13 C9          10.9200    -0.3950    22.6240 ca         1 KVO      -0.064300
     14 O            9.3400     1.9850    21.3070 o          1 KVO      -0.574100
     15 C1           5.9190     0.3230    19.7890 ca         1 KVO      -0.046300
     16 C            5.0990     0.0170    21.0380 c3         1 KVO      -0.049800
     17 N            7.3930     0.8910    17.4400 nb         1 KVO      -0.669000
     18 C3           6.0430     0.8590    17.4260 ca         1 KVO       0.343900
     19 C2           5.2770     0.5740    18.5650 ca         1 KVO      -0.165000
     20 H1           7.7350    -0.7240    21.5180 hn         1 KVO       0.152000
     21 H2           9.8730     0.3500    17.4960 hc         1 KVO       0.058367
     22 H3           9.9700     1.6160    18.7240 hc         1 KVO       0.058367
     23 H4           9.9910    -0.0960    19.1940 hc         1 KVO       0.058367
     24 H5           9.6810     0.9840    23.7290 hc         1 KVO       0.066200
     25 H6           8.8920    -0.5650    23.3080 hc         1 KVO       0.066200
     26 H7          12.0650     1.3350    23.2630 ha         1 KVO       0.119000
     27 H8          14.3870    -1.9710    21.7460 ha         1 KVO       0.131000
     28 H9          14.2690     0.3290    22.7100 ha         1 KVO       0.121000
     29 H10         10.0900    -2.2650    21.8940 ha         1 KVO       0.126000
     30 H11          5.3360    -0.9790    21.4310 hc         1 KVO       0.047367
     31 H12          5.2980     0.7490    21.8300 hc         1 KVO       0.047367
     32 H13          4.0220     0.0410    20.8330 hc         1 KVO       0.047367
     33 H14          5.5630     1.0570    16.4690 h4         1 KVO       0.021100
     34 H15          4.1930     0.5520    18.4870 ha         1 KVO       0.123000
@<TRIPOS>BOND
     1     1     4 1   
     2     1     5 1   
     3     1    20 1   
     4     2     3 1   
     5     2     4 ar  
     6     2    17 ar  
     7     3    21 1   
     8     3    22 1   
     9     3    23 1   
    10     4    15 ar  
    11     5     6 1   
    12     5    14 2   
    13     6    13 1   
    14     6    24 1   
    15     6    25 1   
    16     7    11 ar  
    17     7    13 ar  
    18     7    26 1   
    19     8     9 1   
    20     8    10 ar  
    21     8    12 ar  
    22    10    11 ar  
    23    10    27 1   
    24    11    28 1   
    25    12    13 ar  
    26    12    29 1   
    27    15    16 1   
    28    15    19 ar  
    29    16    30 1   
    30    16    31 1   
    31    16    32 1   
    32    17    18 ar  
    33    18    19 ar  
    34    18    33 1   
    35    19    34 1   
@<TRIPOS>SUBSTRUCTURE
     1 KVO         1 TEMP              0 ****  ****    0 ROOT
