@<TRIPOS>MOLECULE
KVO
   34    35     1     0     0
SMALL
abcg2


@<TRIPOS>ATOM
      1 N1           7.8540    -0.2790    20.8860 ns         1 KVO      -0.167000
      2 C4           7.7740     0.1660    18.4810 ca         1 KVO       0.377300
      3 C5           9.1530    -0.3910    18.2890 c3         1 KVO      -0.146400
      4 C6           7.1650     0.2070    19.7420 ca         1 KVO      -0.103000
      5 C7           8.9550     0.3080    21.4160 c          1 KVO       0.596100
      6 C8           9.5150    -0.3770    22.6580 c3         1 KVO      -0.108100
      7 C10         11.8830     0.2390    23.2980 ca         1 KVO      -0.088000
      8 C13         12.9000    -1.6450    21.5590 ca         1 KVO       0.126000
      9 CL          13.5380    -2.8400    20.4450 cl         1 KVO      -0.213000
     10 C12         13.7830    -0.8640    22.2940 ca         1 KVO      -0.097000
     11 C11         13.2600     0.0810    23.1680 ca         1 KVO      -0.099000
     12 C14         11.5270    -1.5050    21.6810 ca         1 KVO      -0.097000
     13 C9          11.0080    -0.5520    22.5580 ca         1 KVO      -0.064300
     14 O            9.4700     1.3140    20.9410 o          1 KVO      -0.574100
     15 C1           5.8660     0.7010    19.8860 ca         1 KVO      -0.046300
     16 C            5.1950     0.7470    21.2260 c3         1 KVO      -0.049800
     17 N            7.1430     0.6220    17.3910 nb         1 KVO      -0.669000
     18 C3           5.9050     1.1040    17.5240 ca         1 KVO       0.343900
     19 C2           5.2310     1.1550    18.7330 ca         1 KVO      -0.165000
     20 H1           7.4380    -1.0450    21.3950 hn         1 KVO       0.152000
     21 H2           9.2990    -0.6540    17.2430 hc         1 KVO       0.058367
     22 H3           9.9070     0.3470    18.5730 hc         1 KVO       0.058367
     23 H4           9.3170    -1.2710    18.9120 hc         1 KVO       0.058367
     24 H5           9.2650     0.2560    23.5120 hc         1 KVO       0.066200
     25 H6           9.0310    -1.3430    22.8080 hc         1 KVO       0.066200
     26 H7          11.4860     0.9810    23.9790 ha         1 KVO       0.119000
     27 H8          14.8510    -0.9930    22.1840 ha         1 KVO       0.131000
     28 H9          13.9330     0.6980    23.7490 ha         1 KVO       0.121000
     29 H10         10.8640    -2.1260    21.0940 ha         1 KVO       0.126000
     30 H11          5.0600    -0.2590    21.6320 hc         1 KVO       0.047367
     31 H12          5.8030     1.3000    21.9440 hc         1 KVO       0.047367
     32 H13          4.2170     1.2210    21.1530 hc         1 KVO       0.047367
     33 H14          5.4280     1.4610    16.6180 h4         1 KVO       0.021100
     34 H15          4.2250     1.5510    18.7810 ha         1 KVO       0.123000
@<TRIPOS>BOND
     1     1     4 1   
     2     1     5 1   
     3     1    20 1   
     4     2     3 1   
     5     2     4 ar  
     6     2    17 ar  
     7     3    21 1   
     8     3    22 1   
     9     3    23 1   
    10     4    15 ar  
    11     5     6 1   
    12     5    14 2   
    13     6    13 1   
    14     6    24 1   
    15     6    25 1   
    16     7    11 ar  
    17     7    13 ar  
    18     7    26 1   
    19     8     9 1   
    20     8    10 ar  
    21     8    12 ar  
    22    10    11 ar  
    23    10    27 1   
    24    11    28 1   
    25    12    13 ar  
    26    12    29 1   
    27    15    16 1   
    28    15    19 ar  
    29    16    30 1   
    30    16    31 1   
    31    16    32 1   
    32    17    18 ar  
    33    18    19 ar  
    34    18    33 1   
    35    19    34 1   
@<TRIPOS>SUBSTRUCTURE
     1 KVO         1 TEMP              0 ****  ****    0 ROOT
