@<TRIPOS>MOLECULE
KVP
   24    23     1     0     0
SMALL
abcg2


@<TRIPOS>ATOM
      1 C1          -0.1650     0.4150    -0.3660 c3         1 KVP      -0.142700
      2 C2           0.8910    -0.4330     0.3040 c3         1 KVP       0.128600
      3 N3           2.3430    -0.1460    -0.0570 n4         1 KVP      -0.496000
      4 P4          -1.9040    -0.1550     0.1970 p5         1 KVP       1.221500
      5 C5           2.5390    -0.1640    -1.5290 c3         1 KVP       0.081900
      6 C6           2.8000     1.1640     0.4840 c3         1 KVP       0.081900
      7 C8           3.1760    -1.2190     0.5510 c3         1 KVP       0.081900
      8 O9          -2.2540     1.0920     1.0490 o          1 KVP      -0.861500
      9 O10         -2.7440    -0.3000    -1.0670 o          1 KVP      -0.861500
     10 O11         -1.7300    -1.4360     1.0070 o          1 KVP      -0.861500
     11 O1          -0.0760     1.7820    -0.0290 oh         1 KVP      -0.763000
     12 H1          -0.0930     0.2890    -1.4540 h1         1 KVP       0.034700
     13 H2           0.8380    -0.3500     1.3900 hx         1 KVP       0.083700
     14 H3           0.7320    -1.4780     0.0400 hx         1 KVP       0.083700
     15 H4           3.6000    -0.0690    -1.7460 hx         1 KVP       0.074811
     16 H5           2.1680    -1.1050    -1.9310 hx         1 KVP       0.074811
     17 H6           2.0040     0.6650    -1.9810 hx         1 KVP       0.074811
     18 H7           2.6220     1.1860     1.5560 hx         1 KVP       0.074811
     19 H8           3.8660     1.2640     0.2910 hx         1 KVP       0.074811
     20 H9           2.2560     1.9690     0.0070 hx         1 KVP       0.074811
     21 H10          3.0350    -1.2110     1.6290 hx         1 KVP       0.074811
     22 H11          2.8730    -2.1810     0.1470 hx         1 KVP       0.074811
     23 H12          4.2230    -1.0380     0.3190 hx         1 KVP       0.074811
     24 H15         -0.8890     1.8810     0.5370 ho         1 KVP       0.516000
@<TRIPOS>BOND
     1     1     2 1   
     2     1     4 1   
     3     1    11 1   
     4     1    12 1   
     5     2     3 1   
     6     2    13 1   
     7     2    14 1   
     8     3     5 1   
     9     3     6 1   
    10     3     7 1   
    11     4     8 1   
    12     4     9 1   
    13     4    10 1   
    14     5    15 1   
    15     5    16 1   
    16     5    17 1   
    17     6    18 1   
    18     6    19 1   
    19     6    20 1   
    20     7    21 1   
    21     7    22 1   
    22     7    23 1   
    23    11    24 1   
@<TRIPOS>SUBSTRUCTURE
     1 KVP         1 TEMP              0 ****  ****    0 ROOT
