@<TRIPOS>MOLECULE
KVP
   24    23     1     0     0
SMALL
No Charge or Current Charge


@<TRIPOS>ATOM
      1 C1          -0.1750     0.6370     0.1620 c3         1 KVP      -0.142700
      2 C2           0.9120    -0.4720     0.2710 c3         1 KVP       0.128600
      3 N3           2.3650    -0.1700    -0.1780 n4         1 KVP      -0.496000
      4 P4          -1.8780    -0.2100     0.1520 p5         1 KVP       1.221500
      5 C5           2.3860     0.2570    -1.6480 c3         1 KVP       0.081900
      6 C6           2.9730     0.9410     0.6840 c3         1 KVP       0.081900
      7 C8           3.2060    -1.4390    -0.0140 c3         1 KVP       0.081900
      8 O9          -2.1370    -0.7530    -1.2120 o          1 KVP      -0.861500
      9 O10         -1.8800    -1.3100     1.1600 o          1 KVP      -0.861500
     10 O11         -2.9090     0.8120     0.5110 o          1 KVP      -0.861500
     11 O1           0.0080     1.6680     1.1880 oh         1 KVP      -0.763000
     12 H1          -0.1190     1.0930    -0.8340 h1         1 KVP       0.034700
     13 H2           0.9510    -0.8170     1.3060 hx         1 KVP       0.083700
     14 H3           0.5780    -1.3160    -0.3380 hx         1 KVP       0.083700
     15 H4           3.4190     0.4330    -1.9560 hx         1 KVP       0.074811
     16 H5           1.9480    -0.5360    -2.2580 hx         1 KVP       0.074811
     17 H6           1.8070     1.1750    -1.7620 hx         1 KVP       0.074811
     18 H7           2.9300     0.6430     1.7330 hx         1 KVP       0.074811
     19 H8           4.0100     1.1020     0.3840 hx         1 KVP       0.074811
     20 H9           2.4000     1.8590     0.5370 hx         1 KVP       0.074811
     21 H10          3.1960    -1.7420     1.0350 hx         1 KVP       0.074811
     22 H11          2.7810    -2.2320    -0.6330 hx         1 KVP       0.074811
     23 H12          4.2310    -1.2330    -0.3300 hx         1 KVP       0.074811
     24 H15         -0.8930     2.0300     1.3880 ho         1 KVP       0.516000
@<TRIPOS>BOND
     1     1     2 1   
     2     1     4 1   
     3     1    11 1   
     4     1    12 1   
     5     2     3 1   
     6     2    13 1   
     7     2    14 1   
     8     3     5 1   
     9     3     6 1   
    10     3     7 1   
    11     4     8 1   
    12     4     9 1   
    13     4    10 1   
    14     5    15 1   
    15     5    16 1   
    16     5    17 1   
    17     6    18 1   
    18     6    19 1   
    19     6    20 1   
    20     7    21 1   
    21     7    22 1   
    22     7    23 1   
    23    11    24 1   
@<TRIPOS>SUBSTRUCTURE
     1 KVP         1 TEMP              0 ****  ****    0 ROOT
