@<TRIPOS>MOLECULE
KVQ
   39    41     1     0     0
SMALL
abcg2


@<TRIPOS>ATOM
      1 C11         -3.1500     0.3340     1.7260 ca         1 KVQ      -0.082500
      2 C10         -4.2290     0.4690     2.5840 ca         1 KVQ      -0.116000
      3 C8          -5.7290    -0.1160     0.8020 ca         1 KVQ      -0.116000
      4 C7          -4.6520    -0.2530    -0.0600 ca         1 KVQ      -0.082500
      5 C4          -2.1950    -0.1680    -0.4940 cc         1 KVQ       0.492900
      6 C9          -5.5220     0.2460     2.1270 ca         1 KVQ      -0.098000
      7 C6          -3.3510    -0.0290     0.3920 ca         1 KVQ      -0.133500
      8 N5          -0.9670     0.0130    -0.1190 nd         1 KVQ      -0.630000
      9 S3          -2.3520    -0.5990    -2.1670 ss         1 KVQ      -0.023400
     10 C2          -0.6500    -0.5300    -2.3270 cc         1 KVQ      -0.244000
     11 C1          -0.0870    -0.1900    -1.1380 cd         1 KVQ       0.306300
     12 C15          1.3770    -0.0210    -0.8970 c6         1 KVQ       0.153000
     13 O5           1.7440    -0.8880     0.1510 os         1 KVQ      -0.419000
     14 C5           3.1320    -0.9140     0.4120 c6         1 KVQ       0.169300
     15 C13          3.3790    -1.9510     1.4860 c3         1 KVQ       0.172600
     16 O6           2.9980    -3.2150     0.9970 oh         1 KVQ      -0.709000
     17 C12          3.6020     0.4760     0.8450 c6         1 KVQ       0.138300
     18 O4           4.9930     0.4310     1.0470 oh         1 KVQ      -0.719000
     19 C3           3.2280     1.4900    -0.2290 c6         1 KVQ       0.095300
     20 O3           3.6080     2.7720     0.2270 oh         1 KVQ      -0.669000
     21 C14          1.7340     1.4190    -0.5280 c6         1 KVQ       0.117300
     22 O2           1.3710     2.2410    -1.6090 oh         1 KVQ      -0.714000
     23 H1          -2.1450     0.5100     2.0850 ha         1 KVQ       0.125000
     24 H2          -4.0580     0.7480     3.6150 ha         1 KVQ       0.115000
     25 H3          -6.7310    -0.2920     0.4360 ha         1 KVQ       0.115000
     26 H4          -4.8410    -0.5380    -1.0890 ha         1 KVQ       0.125000
     27 H5          -6.3630     0.3520     2.7990 ha         1 KVQ       0.114000
     28 H6          -0.1610    -0.7400    -3.2650 h4         1 KVQ       0.164000
     29 H7           1.9130    -0.2870    -1.8220 h1         1 KVQ       0.052700
     30 H8           3.6810    -1.2000    -0.5010 h1         1 KVQ       0.056700
     31 H9           4.4400    -1.9230     1.7550 h1         1 KVQ       0.036200
     32 H10          2.8120    -1.6700     2.3850 h1         1 KVQ       0.036200
     33 H11          3.2200    -3.8700     1.6650 ho         1 KVQ       0.503000
     34 H12          3.0770     0.7420     1.7770 h1         1 KVQ       0.058700
     35 H13          5.2880     1.3250     1.2530 ho         1 KVQ       0.520000
     36 H14          3.7760     1.2290    -1.1480 h1         1 KVQ       0.052700
     37 H15          3.9090     3.2950    -0.5210 ho         1 KVQ       0.452000
     38 H16          1.1760     1.6890     0.3800 h1         1 KVQ       0.073700
     39 H17          1.3950     3.1570    -1.3160 ho         1 KVQ       0.510000
@<TRIPOS>BOND
     1     1     2 ar  
     2     1     7 ar  
     3     1    23 1   
     4     2     6 ar  
     5     2    24 1   
     6     3     4 ar  
     7     3     6 ar  
     8     3    25 1   
     9     4     7 ar  
    10     4    26 1   
    11     5     7 1   
    12     5     8 2   
    13     5     9 1   
    14     6    27 1   
    15     8    11 1   
    16     9    10 1   
    17    10    11 2   
    18    10    28 1   
    19    11    12 1   
    20    12    13 1   
    21    12    21 1   
    22    12    29 1   
    23    13    14 1   
    24    14    15 1   
    25    14    17 1   
    26    14    30 1   
    27    15    16 1   
    28    15    31 1   
    29    15    32 1   
    30    16    33 1   
    31    17    18 1   
    32    17    19 1   
    33    17    34 1   
    34    18    35 1   
    35    19    20 1   
    36    19    21 1   
    37    19    36 1   
    38    20    37 1   
    39    21    22 1   
    40    21    38 1   
    41    22    39 1   
@<TRIPOS>SUBSTRUCTURE
     1 KVQ         1 TEMP              0 ****  ****    0 ROOT
