@<TRIPOS>MOLECULE
KVQ
   39    41     1     0     0
SMALL
No Charge or Current Charge


@<TRIPOS>ATOM
      1 C11         -3.7590     1.6860     0.2750 ca         1 KVQ      -0.082500
      2 C10         -5.0030     2.3250     0.4160 ca         1 KVQ      -0.116000
      3 C8          -6.0830     0.1680     0.6800 ca         1 KVQ      -0.116000
      4 C7          -4.8400    -0.4750     0.5380 ca         1 KVQ      -0.082500
      5 C4          -2.3450    -0.3870     0.1870 cc         1 KVQ       0.492900
      6 C9          -6.1660     1.5670     0.6190 ca         1 KVQ      -0.098000
      7 C6          -3.6570     0.2750     0.3290 ca         1 KVQ      -0.133500
      8 N5          -1.2080     0.2950     0.0790 nd         1 KVQ      -0.630000
      9 S3          -2.1830    -2.1290     0.1450 ss         1 KVQ      -0.023400
     10 C2          -0.4690    -1.9100    -0.0350 cc         1 KVQ      -0.244000
     11 C1          -0.1280    -0.5760    -0.0510 cd         1 KVQ       0.306300
     12 C15          1.3110    -0.0790    -0.2010 c6         1 KVQ       0.153000
     13 O5           2.2430    -1.1940    -0.1860 os         1 KVQ      -0.419000
     14 C5           3.6310    -0.8280    -0.4110 c6         1 KVQ       0.169300
     15 C13          4.4820    -2.1390    -0.4720 c3         1 KVQ       0.172600
     16 O6           4.0190    -3.0770    -1.4660 oh         1 KVQ      -0.709000
     17 C12          4.1060     0.1400     0.7180 c6         1 KVQ       0.138300
     18 O4           5.4620     0.5840     0.5280 oh         1 KVQ      -0.719000
     19 C3           3.1650     1.3770     0.7640 c6         1 KVQ       0.095300
     20 O3           3.5450     2.2690     1.8260 oh         1 KVQ      -0.669000
     21 C14          1.6860     0.9270     0.9370 c6         1 KVQ       0.117300
     22 O2           0.8190     2.0800     0.9400 oh         1 KVQ      -0.714000
     23 H1          -2.8740     2.2990     0.1180 ha         1 KVQ       0.125000
     24 H2          -5.0650     3.4100     0.3700 ha         1 KVQ       0.115000
     25 H3          -6.9830    -0.4220     0.8380 ha         1 KVQ       0.115000
     26 H4          -4.8150    -1.5610     0.5950 ha         1 KVQ       0.125000
     27 H5          -7.1290     2.0620     0.7290 ha         1 KVQ       0.114000
     28 H6           0.1780    -2.7720    -0.1200 h4         1 KVQ       0.164000
     29 H7           1.4030     0.4290    -1.1730 h1         1 KVQ       0.052700
     30 H8           3.7100    -0.3220    -1.3840 h1         1 KVQ       0.056700
     31 H9           5.5250    -1.8620    -0.6780 h1         1 KVQ       0.036200
     32 H10          4.4610    -2.6040     0.5230 h1         1 KVQ       0.036200
     33 H11          4.5830    -3.8820    -1.3870 ho         1 KVQ       0.503000
     34 H12          4.0220    -0.3920     1.6780 h1         1 KVQ       0.058700
     35 H13          5.5240     1.4140     1.0620 ho         1 KVQ       0.520000
     36 H14          3.2440     1.9010    -0.2010 h1         1 KVQ       0.052700
     37 H15          2.7470     2.8260     1.9810 ho         1 KVQ       0.452000
     38 H16          1.5950     0.3910     1.8950 h1         1 KVQ       0.073700
     39 H17         -0.0840     1.7320     0.7140 ho         1 KVQ       0.510000
@<TRIPOS>BOND
     1     1     2 ar  
     2     1     7 ar  
     3     1    23 1   
     4     2     6 ar  
     5     2    24 1   
     6     3     4 ar  
     7     3     6 ar  
     8     3    25 1   
     9     4     7 ar  
    10     4    26 1   
    11     5     7 1   
    12     5     8 2   
    13     5     9 1   
    14     6    27 1   
    15     8    11 1   
    16     9    10 1   
    17    10    11 2   
    18    10    28 1   
    19    11    12 1   
    20    12    13 1   
    21    12    21 1   
    22    12    29 1   
    23    13    14 1   
    24    14    15 1   
    25    14    17 1   
    26    14    30 1   
    27    15    16 1   
    28    15    31 1   
    29    15    32 1   
    30    16    33 1   
    31    17    18 1   
    32    17    19 1   
    33    17    34 1   
    34    18    35 1   
    35    19    20 1   
    36    19    21 1   
    37    19    36 1   
    38    20    37 1   
    39    21    22 1   
    40    21    38 1   
    41    22    39 1   
@<TRIPOS>SUBSTRUCTURE
     1 KVQ         1 TEMP              0 ****  ****    0 ROOT
