@<TRIPOS>MOLECULE
KVR
   41    43     1     0     0
SMALL
No Charge or Current Charge


@<TRIPOS>ATOM
      1 C01        187.8440    59.5740   246.6140 c3         1 KVR       0.150900
      2 C03        189.4290    57.6810   246.6500 ca         1 KVR       0.149100
      3 C04        189.7250    56.3960   247.1280 ca         1 KVR      -0.133000
      4 C05        190.9190    55.7470   246.7600 ca         1 KVR      -0.012300
      5 C06        191.8320    56.4080   245.9080 ca         1 KVR      -0.144000
      6 C07        191.5330    57.6910   245.4190 ca         1 KVR      -0.041000
      7 C08        190.3370    58.3300   245.7870 ca         1 KVR      -0.216000
      8 C10        194.2030    55.1230   247.0070 c3         1 KVR       0.028600
      9 C11        193.3230    55.2560   248.2790 c3         1 KVR       0.180800
     10 C13        191.2190    54.3400   247.2760 c3         1 KVR       0.209100
     11 C15        191.4570    51.9920   249.0980 ca         1 KVR      -0.134300
     12 C16        190.7830    52.1350   250.3240 ca         1 KVR      -0.128500
     13 C17        189.7130    51.2850   250.6540 ca         1 KVR      -0.094500
     14 C18        189.2920    50.2700   249.7620 ca         1 KVR      -0.125600
     15 C19        189.9770    50.1340   248.5310 ca         1 KVR      -0.094500
     16 C20        191.0470    50.9850   248.2040 ca         1 KVR      -0.128500
     17 C21        188.1340    49.3480   250.1170 c          1 KVR       0.712600
     18 N12        192.1870    54.2970   248.4070 n3         1 KVR      -0.724600
     19 O02        188.2410    58.2610   247.0480 os         1 KVR      -0.335100
     20 O22        187.8040    48.4850   249.3150 o          1 KVR      -0.720500
     21 O23        187.5720    49.5000   251.1930 o          1 KVR      -0.720500
     22 S09        193.3710    55.6270   245.4160 ss         1 KVR      -0.237000
     23 H1         186.8720    59.8390   247.0470 h1         1 KVR       0.037033
     24 H2         188.5760    60.3270   246.9340 h1         1 KVR       0.037033
     25 H3         187.7520    59.6120   245.5210 h1         1 KVR       0.037033
     26 H4         189.0200    55.9000   247.7900 ha         1 KVR       0.142000
     27 H5         192.2330    58.1950   244.7550 ha         1 KVR       0.116000
     28 H6         190.1370    59.3230   245.3960 ha         1 KVR       0.111000
     29 H7         194.5680    54.0930   246.9080 h1         1 KVR       0.062700
     30 H8         195.0790    55.7700   247.1350 h1         1 KVR       0.062700
     31 H9         193.9850    55.1380   249.1480 h1         1 KVR       0.054700
     32 H10        192.9540    56.2890   248.3370 h1         1 KVR       0.054700
     33 H11        190.2720    53.8730   247.5820 h1         1 KVR       0.065700
     34 H12        191.5920    53.7380   246.4360 h1         1 KVR       0.065700
     35 H13        193.1780    52.4850   247.9040 h1         1 KVR       0.025700
     36 H14        193.3030    52.9450   249.6020 h1         1 KVR       0.025700
     37 H15        191.0870    52.9110   251.0220 ha         1 KVR       0.089500
     38 H16        189.2090    51.4200   251.6080 ha         1 KVR       0.126000
     39 H17        189.6810    49.3650   247.8200 ha         1 KVR       0.126000
     40 H18        191.5560    50.8620   247.2510 ha         1 KVR       0.089500
     41 C14        192.6180    52.9190   248.7430 c3         1 KVR       0.231100
@<TRIPOS>BOND
     1     1    19 1   
     2     1    23 1   
     3     1    24 1   
     4     1    25 1   
     5     2     3 ar  
     6     2     7 ar  
     7     2    19 1   
     8     3     4 ar  
     9     3    26 1   
    10     4     5 ar  
    11     4    10 1   
    12     5     6 ar  
    13     5    22 1   
    14     6     7 ar  
    15     6    27 1   
    16     7    28 1   
    17     8     9 1   
    18     8    22 1   
    19     8    29 1   
    20     8    30 1   
    21     9    18 1   
    22     9    31 1   
    23     9    32 1   
    24    10    18 1   
    25    10    33 1   
    26    10    34 1   
    27    11    12 ar  
    28    11    16 ar  
    29    11    41 1   
    30    12    13 ar  
    31    12    37 1   
    32    13    14 ar  
    33    13    38 1   
    34    14    15 ar  
    35    14    17 1   
    36    15    16 ar  
    37    15    39 1   
    38    16    40 1   
    39    17    20 1   
    40    17    21 1   
    41    18    41 1   
    42    35    41 1   
    43    36    41 1   
@<TRIPOS>SUBSTRUCTURE
     1 KVR         1 TEMP              0 ****  ****    0 ROOT
