@<TRIPOS>MOLECULE
KVR
   41    43     1     0     0
SMALL
abcg2


@<TRIPOS>ATOM
      1 C01        187.9790    59.5510   246.6580 c3         1 KVR       0.150900
      2 C03        189.4610    57.7000   246.6690 ca         1 KVR       0.149100
      3 C04        189.7210    56.3990   247.1100 ca         1 KVR      -0.133000
      4 C05        190.8850    55.7410   246.7580 ca         1 KVR      -0.012300
      5 C06        191.8400    56.4100   245.9750 ca         1 KVR      -0.144000
      6 C07        191.5860    57.7040   245.5490 ca         1 KVR      -0.041000
      7 C08        190.4000    58.3520   245.8750 ca         1 KVR      -0.216000
      8 C10        194.1240    55.2190   247.0950 c3         1 KVR       0.028600
      9 C11        193.1740    55.2140   248.2920 c3         1 KVR       0.180800
     10 C13        191.1380    54.3340   247.2120 c3         1 KVR       0.209100
     11 C15        191.4290    51.9750   248.9390 ca         1 KVR      -0.134300
     12 C16        190.6580    52.2960   250.0540 ca         1 KVR      -0.128500
     13 C17        189.6400    51.4570   250.4770 ca         1 KVR      -0.094500
     14 C18        189.3530    50.2720   249.7990 ca         1 KVR      -0.125600
     15 C19        190.1210    49.9590   248.6820 ca         1 KVR      -0.094500
     16 C20        191.1430    50.7980   248.2560 ca         1 KVR      -0.128500
     17 C21        188.2340    49.3490   250.2710 c          1 KVR       0.712600
     18 N12        192.1010    54.2470   248.3060 n3         1 KVR      -0.724600
     19 O02        188.2910    58.2330   247.0620 os         1 KVR      -0.335100
     20 O22        188.0390    48.3200   249.5970 o          1 KVR      -0.720500
     21 O23        187.6130    49.7060   251.2910 o          1 KVR      -0.720500
     22 S09        193.3270    55.5920   245.4850 ss         1 KVR      -0.237000
     23 H1         187.0060    59.7830   247.0850 h1         1 KVR       0.037033
     24 H2         188.7080    60.2760   247.0300 h1         1 KVR       0.037033
     25 H3         187.9170    59.6420   245.5710 h1         1 KVR       0.037033
     26 H4         188.9850    55.8970   247.7280 ha         1 KVR       0.142000
     27 H5         192.3230    58.2260   244.9530 ha         1 KVR       0.116000
     28 H6         190.2390    59.3590   245.5140 ha         1 KVR       0.111000
     29 H7         194.6060    54.2490   246.9710 h1         1 KVR       0.062700
     30 H8         194.9060    55.9570   247.2750 h1         1 KVR       0.062700
     31 H9         193.7890    55.0390   249.1790 h1         1 KVR       0.054700
     32 H10        192.7580    56.2150   248.4210 h1         1 KVR       0.054700
     33 H11        190.1980    53.8850   247.5400 h1         1 KVR       0.065700
     34 H12        191.4760    53.7550   246.3390 h1         1 KVR       0.065700
     35 H13        193.0190    52.4610   247.5940 h1         1 KVR       0.025700
     36 H14        193.3240    52.8900   249.2720 h1         1 KVR       0.025700
     37 H15        190.8590    53.2160   250.5920 ha         1 KVR       0.089500
     38 H16        189.0560    51.7250   251.3480 ha         1 KVR       0.126000
     39 H17        189.9140    49.0490   248.1340 ha         1 KVR       0.126000
     40 H18        191.7230    50.5340   247.3790 ha         1 KVR       0.089500
     41 C14        192.5500    52.8820   248.4990 c3         1 KVR       0.231100
@<TRIPOS>BOND
     1     1    19 1   
     2     1    23 1   
     3     1    24 1   
     4     1    25 1   
     5     2     3 ar  
     6     2     7 ar  
     7     2    19 1   
     8     3     4 ar  
     9     3    26 1   
    10     4     5 ar  
    11     4    10 1   
    12     5     6 ar  
    13     5    22 1   
    14     6     7 ar  
    15     6    27 1   
    16     7    28 1   
    17     8     9 1   
    18     8    22 1   
    19     8    29 1   
    20     8    30 1   
    21     9    18 1   
    22     9    31 1   
    23     9    32 1   
    24    10    18 1   
    25    10    33 1   
    26    10    34 1   
    27    11    12 ar  
    28    11    16 ar  
    29    11    41 1   
    30    12    13 ar  
    31    12    37 1   
    32    13    14 ar  
    33    13    38 1   
    34    14    15 ar  
    35    14    17 1   
    36    15    16 ar  
    37    15    39 1   
    38    16    40 1   
    39    17    20 1   
    40    17    21 1   
    41    18    41 1   
    42    35    41 1   
    43    36    41 1   
@<TRIPOS>SUBSTRUCTURE
     1 KVR         1 TEMP              0 ****  ****    0 ROOT
