@<TRIPOS>MOLECULE
KVT
   58    60     1     0     0
SMALL
abcg2


@<TRIPOS>ATOM
      1 C10         -0.1060     2.2110    -0.5330 ca         1 KVT      -0.040000
      2 C13         -2.2520     0.9710    -0.3990 c          1 KVT       0.589100
      3 C15         -3.7040     1.1310    -0.8390 c3         1 KVT       0.028000
      4 C24         -4.5530    -3.2160     0.4890 c3         1 KVT      -0.096100
      5 C28         -6.7930    -2.4170    -0.3580 c3         1 KVT      -0.096100
      6 C01          4.1140     3.0970    -0.0680 c3         1 KVT      -0.071800
      7 C05          2.6590     2.7570    -0.1960 ca         1 KVT       0.001700
      8 C06          1.7970     3.6640    -0.8060 ca         1 KVT      -0.107000
      9 C08          0.4500     3.4090    -0.9760 ca         1 KVT      -0.116000
     10 N11         -1.4750     2.0240    -0.7400 ns         1 KVT      -0.144000
     11 O14         -1.8730    -0.0230     0.1850 o          1 KVT      -0.559100
     12 N18         -4.5060     0.0870    -0.2850 n          1 KVT      -0.373400
     13 C19         -4.9340     0.1010     1.0480 c          1 KVT       0.624000
     14 O20         -4.7920     1.0430     1.7960 o          1 KVT      -0.546000
     15 N21         -5.5090    -1.0890     1.2760 ns         1 KVT      -0.514900
     16 C23         -5.4180    -2.0030     0.1560 c5         1 KVT       0.044400
     17 C32         -4.7040    -1.1300    -0.8670 c          1 KVT       0.572000
     18 O33         -4.3750    -1.4500    -1.9830 o          1 KVT      -0.501000
     19 C34          0.7250     1.2800     0.0830 ca         1 KVT      -0.046000
     20 C36          2.0760     1.5620     0.2400 ca         1 KVT      -0.241500
     21 S37          3.0520     0.3130     1.0650 sy         1 KVT       1.180600
     22 O38          3.7630     0.9170     2.1840 o          1 KVT      -0.544000
     23 O39          2.1500    -0.7930     1.3600 o          1 KVT      -0.544000
     24 N40          4.1530    -0.1150    -0.0590 n3         1 KVT      -0.794500
     25 C41          5.5850    -0.1260     0.2250 c3         1 KVT       0.230800
     26 C44          6.1150    -1.4450     0.7580 c3         1 KVT      -0.098400
     27 C47          5.7860    -2.6640    -0.1020 c3         1 KVT      -0.071400
     28 C50          4.3010    -3.0370    -0.0960 c3         1 KVT      -0.071400
     29 C53          3.4230    -2.3080    -1.1110 c3         1 KVT      -0.098400
     30 C56          3.6870    -0.8070    -1.2540 c3         1 KVT       0.230800
     31 H1          -4.0960     2.1030    -0.5350 h1         1 KVT       0.086200
     32 H2          -3.7620     1.0870    -1.9280 h1         1 KVT       0.086200
     33 H3          -4.4550    -3.8660    -0.3790 hc         1 KVT       0.055700
     34 H4          -3.5560    -2.9140     0.8130 hc         1 KVT       0.055700
     35 H5          -5.0150    -3.7910     1.2920 hc         1 KVT       0.055700
     36 H6          -7.3170    -2.9920     0.4060 hc         1 KVT       0.055700
     37 H7          -7.4020    -1.5480    -0.6110 hc         1 KVT       0.055700
     38 H8          -6.6970    -3.0430    -1.2440 hc         1 KVT       0.055700
     39 H9           4.7340     2.4350    -0.6720 hc         1 KVT       0.058033
     40 H10          4.2910     4.1140    -0.4120 hc         1 KVT       0.058033
     41 H11          4.4660     3.0260     0.9600 hc         1 KVT       0.058033
     42 H12          2.1950     4.6050    -1.1640 ha         1 KVT       0.114000
     43 H13         -0.1740     4.1510    -1.4610 ha         1 KVT       0.112000
     44 H14         -1.9400     2.7860    -1.2120 hn         1 KVT       0.150000
     45 H15         -5.8630    -1.3520     2.1820 hn         1 KVT       0.351500
     46 H16          0.3300     0.3430     0.4350 ha         1 KVT       0.177000
     47 H17          6.0770     0.1180    -0.7210 h1         1 KVT       0.052950
     48 H18          5.8230     0.6820     0.9140 h1         1 KVT       0.052950
     49 H19          7.1990    -1.3440     0.8520 hc         1 KVT       0.050950
     50 H20          5.7320    -1.6080     1.7700 hc         1 KVT       0.050950
     51 H21          6.1410    -2.5110    -1.1280 hc         1 KVT       0.042950
     52 H22          6.3580    -3.5090     0.2870 hc         1 KVT       0.042950
     53 H23          4.1940    -4.1080    -0.2800 hc         1 KVT       0.042950
     54 H24          3.9080    -2.8700     0.9110 hc         1 KVT       0.042950
     55 H25          3.5670    -2.7470    -2.1020 hc         1 KVT       0.050950
     56 H26          2.3770    -2.4790    -0.8540 hc         1 KVT       0.050950
     57 H27          2.7960    -0.3030    -1.6390 h1         1 KVT       0.052950
     58 H28          4.4640    -0.6360    -2.0010 h1         1 KVT       0.052950
@<TRIPOS>BOND
     1     1     9 ar  
     2     1    10 1   
     3     1    19 ar  
     4     2     3 1   
     5     2    10 1   
     6     2    11 2   
     7     3    12 1   
     8     3    31 1   
     9     3    32 1   
    10     4    16 1   
    11     4    33 1   
    12     4    34 1   
    13     4    35 1   
    14     5    16 1   
    15     5    36 1   
    16     5    37 1   
    17     5    38 1   
    18     6     7 1   
    19     6    39 1   
    20     6    40 1   
    21     6    41 1   
    22     7     8 ar  
    23     7    20 ar  
    24     8     9 ar  
    25     8    42 1   
    26     9    43 1   
    27    10    44 1   
    28    12    13 1   
    29    12    17 1   
    30    13    14 2   
    31    13    15 1   
    32    15    16 1   
    33    15    45 1   
    34    16    17 1   
    35    17    18 2   
    36    19    20 ar  
    37    19    46 1   
    38    20    21 1   
    39    21    22 2   
    40    21    23 2   
    41    21    24 1   
    42    24    25 1   
    43    24    30 1   
    44    25    26 1   
    45    25    47 1   
    46    25    48 1   
    47    26    27 1   
    48    26    49 1   
    49    26    50 1   
    50    27    28 1   
    51    27    51 1   
    52    27    52 1   
    53    28    29 1   
    54    28    53 1   
    55    28    54 1   
    56    29    30 1   
    57    29    55 1   
    58    29    56 1   
    59    30    57 1   
    60    30    58 1   
@<TRIPOS>SUBSTRUCTURE
     1 KVT         1 TEMP              0 ****  ****    0 ROOT
