@<TRIPOS>MOLECULE
KVT
   58    60     1     0     0
SMALL
No Charge or Current Charge


@<TRIPOS>ATOM
      1 C10          0.1640     2.2860    -0.5340 ca         1 KVT      -0.040000
      2 C13         -1.9330     0.8430    -0.1650 c          1 KVT       0.589100
      3 C15         -3.4460     0.9310    -0.4480 c3         1 KVT       0.028000
      4 C24         -4.4430    -3.6440     0.4690 c3         1 KVT      -0.096100
      5 C28         -6.5550    -2.7080    -0.5870 c3         1 KVT      -0.096100
      6 C01          4.3470     3.5500    -0.5380 c3         1 KVT      -0.071800
      7 C05          2.8960     3.0720    -0.4940 ca         1 KVT       0.001700
      8 C06          1.9430     3.7980    -1.2330 ca         1 KVT      -0.107000
      9 C08          0.5950     3.4110    -1.2530 ca         1 KVT      -0.116000
     10 N11         -1.2170     1.9490    -0.6060 ns         1 KVT      -0.144000
     11 O14         -1.4260    -0.1260     0.3910 o          1 KVT      -0.559100
     12 N18         -4.2340    -0.2510     0.0010 n          1 KVT      -0.373400
     13 C19         -4.8570    -0.3050     1.2200 c          1 KVT       0.624000
     14 O20         -4.8780     0.5690     2.0680 o          1 KVT      -0.546000
     15 N21         -5.4560    -1.5230     1.3230 ns         1 KVT      -0.514900
     16 C23         -5.2280    -2.3570     0.1250 c5         1 KVT       0.044400
     17 C32         -4.3560    -1.3960    -0.7640 c          1 KVT       0.572000
     18 O33         -3.8740    -1.5680    -1.8760 o          1 KVT      -0.501000
     19 C34          1.1080     1.5580     0.2230 ca         1 KVT      -0.046000
     20 C36          2.4720     1.9370     0.2510 ca         1 KVT      -0.241500
     21 S37          3.6180     0.9280     1.2440 sy         1 KVT       1.180600
     22 O38          4.5120     1.8460     1.9580 o          1 KVT      -0.544000
     23 O39          2.8690    -0.1180     1.9480 o          1 KVT      -0.544000
     24 N40          4.5900     0.1650     0.0650 n3         1 KVT      -0.794500
     25 C41          5.6980    -0.6820     0.5480 c3         1 KVT       0.230800
     26 C44          5.3370    -2.1190     0.9840 c3         1 KVT      -0.098400
     27 C47          4.6170    -2.9840    -0.0780 c3         1 KVT      -0.071400
     28 C50          3.1440    -2.5830    -0.3070 c3         1 KVT      -0.071400
     29 C53          2.8990    -1.3390    -1.1990 c3         1 KVT      -0.098400
     30 C56          3.9800    -0.2300    -1.2230 c3         1 KVT       0.230800
     31 H1          -3.8230     1.8380     0.0420 h1         1 KVT       0.086200
     32 H2          -3.5740     1.0670    -1.5290 h1         1 KVT       0.086200
     33 H3          -4.2120    -4.2230    -0.4340 hc         1 KVT       0.055700
     34 H4          -3.4920    -3.4070     0.9630 hc         1 KVT       0.055700
     35 H5          -5.0160    -4.2910     1.1440 hc         1 KVT       0.055700
     36 H6          -7.1980    -3.3250     0.0530 hc         1 KVT       0.055700
     37 H7          -7.1170    -1.8020    -0.8460 hc         1 KVT       0.055700
     38 H8          -6.3750    -3.2640    -1.5150 hc         1 KVT       0.055700
     39 H9           5.0410     2.7320    -0.7570 hc         1 KVT       0.058033
     40 H10          4.5000     4.3060    -1.3180 hc         1 KVT       0.058033
     41 H11          4.6420     4.0070     0.4130 hc         1 KVT       0.058033
     42 H12          2.2470     4.6720    -1.8050 ha         1 KVT       0.114000
     43 H13         -0.1170     3.9900    -1.8380 ha         1 KVT       0.112000
     44 H14         -1.7820     2.6520    -1.0660 hn         1 KVT       0.150000
     45 H15         -5.9710    -1.7650     2.1610 hn         1 KVT       0.351500
     46 H16          0.7920     0.6950     0.8010 ha         1 KVT       0.177000
     47 H17          6.4500    -0.7630    -0.2490 h1         1 KVT       0.052950
     48 H18          6.2080    -0.1870     1.3870 h1         1 KVT       0.052950
     49 H19          6.2710    -2.6230     1.2610 hc         1 KVT       0.050950
     50 H20          4.7350    -2.0850     1.8990 hc         1 KVT       0.050950
     51 H21          5.1700    -2.9660    -1.0260 hc         1 KVT       0.042950
     52 H22          4.6340    -4.0250     0.2700 hc         1 KVT       0.042950
     53 H23          2.6190    -3.4320    -0.7620 hc         1 KVT       0.042950
     54 H24          2.6620    -2.4330     0.6660 hc         1 KVT       0.042950
     55 H25          2.7640    -1.6790    -2.2320 hc         1 KVT       0.050950
     56 H26          1.9390    -0.8960    -0.9110 hc         1 KVT       0.050950
     57 H27          3.5520     0.6470    -1.7260 h1         1 KVT       0.052950
     58 H28          4.7810    -0.5760    -1.8900 h1         1 KVT       0.052950
@<TRIPOS>BOND
     1     1     9 ar  
     2     1    10 1   
     3     1    19 ar  
     4     2     3 1   
     5     2    10 1   
     6     2    11 2   
     7     3    12 1   
     8     3    31 1   
     9     3    32 1   
    10     4    16 1   
    11     4    33 1   
    12     4    34 1   
    13     4    35 1   
    14     5    16 1   
    15     5    36 1   
    16     5    37 1   
    17     5    38 1   
    18     6     7 1   
    19     6    39 1   
    20     6    40 1   
    21     6    41 1   
    22     7     8 ar  
    23     7    20 ar  
    24     8     9 ar  
    25     8    42 1   
    26     9    43 1   
    27    10    44 1   
    28    12    13 1   
    29    12    17 1   
    30    13    14 2   
    31    13    15 1   
    32    15    16 1   
    33    15    45 1   
    34    16    17 1   
    35    17    18 2   
    36    19    20 ar  
    37    19    46 1   
    38    20    21 1   
    39    21    22 2   
    40    21    23 2   
    41    21    24 1   
    42    24    25 1   
    43    24    30 1   
    44    25    26 1   
    45    25    47 1   
    46    25    48 1   
    47    26    27 1   
    48    26    49 1   
    49    26    50 1   
    50    27    28 1   
    51    27    51 1   
    52    27    52 1   
    53    28    29 1   
    54    28    53 1   
    55    28    54 1   
    56    29    30 1   
    57    29    55 1   
    58    29    56 1   
    59    30    57 1   
    60    30    58 1   
@<TRIPOS>SUBSTRUCTURE
     1 KVT         1 TEMP              0 ****  ****    0 ROOT
