@<TRIPOS>MOLECULE
KVW
   39    41     1     0     0
SMALL
abcg2


@<TRIPOS>ATOM
      1 C8          -6.1280     0.1820    -0.1130 ca         1 KVW      -0.115500
      2 C6          -3.7200     0.0710     0.0740 ca         1 KVW      -0.120500
      3 C10         -5.0870    -1.8300     0.6760 ca         1 KVW      -0.115500
      4 C9          -6.2370    -1.1240     0.3500 ca         1 KVW      -0.102000
      5 C1          -0.2050     0.7170     0.2110 cc         1 KVW       0.410700
      6 S2          -0.4360     2.2080    -0.6110 ss         1 KVW       0.085600
      7 C3          -2.1160     1.8870    -0.6630 cc         1 KVW      -0.287000
      8 C4          -2.3960     0.6900    -0.0700 cd         1 KVW       0.355500
      9 C7          -4.8830     0.7740    -0.2480 ca         1 KVW      -0.087000
     10 C11         -3.8400    -1.2390     0.5400 ca         1 KVW      -0.087000
     11 N5          -1.2880     0.0430     0.4160 nd         1 KVW      -0.675000
     12 C13          1.1550     0.2670     0.6330 c6         1 KVW       0.096000
     13 O5           2.0750     1.0610    -0.0610 os         1 KVW      -0.444000
     14 C5           3.4200     0.8150     0.3030 c6         1 KVW       0.174300
     15 C12          4.2880     1.8040    -0.4440 c3         1 KVW       0.170600
     16 O6           3.9430     3.1070    -0.0410 oh         1 KVW      -0.712000
     17 C15          3.7770    -0.6340    -0.0350 c6         1 KVW       0.143300
     18 O4           5.1010    -0.8640     0.3730 oh         1 KVW      -0.719000
     19 C14          2.8100    -1.5790     0.6700 c6         1 KVW       0.137300
     20 O3           3.1400    -2.8890     0.2760 oh         1 KVW      -0.666000
     21 C2           1.3690    -1.2250     0.3290 c6         1 KVW       0.126300
     22 O2           0.5210    -2.0360     1.0970 oh         1 KVW      -0.729000
     23 H1          -7.0170     0.7450    -0.3650 ha         1 KVW       0.113500
     24 H2          -5.1600    -2.8480     1.0370 ha         1 KVW       0.113500
     25 H3          -7.2100    -1.5840     0.4580 ha         1 KVW       0.113000
     26 H8          -4.8240     1.7970    -0.5980 ha         1 KVW       0.118000
     27 H9          -2.9520    -1.8030     0.7920 ha         1 KVW       0.118000
     28 H10          1.2510     0.4160     1.7220 h1         1 KVW       0.072700
     29 H11          3.5460     0.9670     1.3880 h1         1 KVW       0.063700
     30 H12          5.3350     1.5750    -0.2250 h1         1 KVW       0.038700
     31 H13          4.1450     1.6570    -1.5240 h1         1 KVW       0.038700
     32 H14          4.5930     3.7110    -0.4100 ho         1 KVW       0.505000
     33 H15          3.6680    -0.7680    -1.1230 h1         1 KVW       0.055700
     34 H16          5.3120    -1.7860     0.1910 ho         1 KVW       0.527000
     35 H17          2.9430    -1.4530     1.7570 h1         1 KVW       0.051700
     36 H18          2.7200    -3.5090     0.8800 ho         1 KVW       0.467000
     37 H19          1.2110    -1.3760    -0.7500 h1         1 KVW       0.058700
     38 H20         -0.3880    -1.7440     0.9310 ho         1 KVW       0.544000
     39 H6          -2.7940     2.5800    -1.1350 h4         1 KVW       0.162000
@<TRIPOS>BOND
     1     1     4 ar  
     2     1     9 ar  
     3     1    23 1   
     4     2     8 1   
     5     2     9 ar  
     6     2    10 ar  
     7     3     4 ar  
     8     3    10 ar  
     9     3    24 1   
    10     4    25 1   
    11     5     6 1   
    12     5    11 2   
    13     5    12 1   
    14     6     7 1   
    15     7     8 2   
    16     7    39 1   
    17     8    11 1   
    18     9    26 1   
    19    10    27 1   
    20    12    13 1   
    21    12    21 1   
    22    12    28 1   
    23    13    14 1   
    24    14    15 1   
    25    14    17 1   
    26    14    29 1   
    27    15    16 1   
    28    15    30 1   
    29    15    31 1   
    30    16    32 1   
    31    17    18 1   
    32    17    19 1   
    33    17    33 1   
    34    18    34 1   
    35    19    20 1   
    36    19    21 1   
    37    19    35 1   
    38    20    36 1   
    39    21    22 1   
    40    21    37 1   
    41    22    38 1   
@<TRIPOS>SUBSTRUCTURE
     1 KVW         1 TEMP              0 ****  ****    0 ROOT
