@<TRIPOS>MOLECULE
KVW
   39    41     1     0     0
SMALL
No Charge or Current Charge


@<TRIPOS>ATOM
      1 C8          -6.2360     0.0820    -0.2030 ca         1 KVW      -0.115500
      2 C6          -3.8050     0.0270     0.1230 ca         1 KVW      -0.120500
      3 C10         -5.2260    -1.7850     0.9710 ca         1 KVW      -0.115500
      4 C9          -6.3670    -1.1420     0.4700 ca         1 KVW      -0.102000
      5 C1          -0.2370     0.7160     0.1500 cc         1 KVW       0.410700
      6 S2          -0.5240     2.2130    -0.7040 ss         1 KVW       0.085600
      7 C3          -2.2190     1.8310    -0.6930 cc         1 KVW      -0.287000
      8 C4          -2.4650     0.6350    -0.0590 cd         1 KVW       0.355500
      9 C7          -4.9670     0.6630    -0.3760 ca         1 KVW      -0.087000
     10 C11         -3.9560    -1.2080     0.8000 ca         1 KVW      -0.087000
     11 N5          -1.3280    -0.0020     0.4220 nd         1 KVW      -0.675000
     12 C13          1.1700     0.2930     0.5550 c6         1 KVW       0.096000
     13 O5           2.1920     1.1350    -0.0470 os         1 KVW      -0.444000
     14 C5           3.5530     0.8410     0.3720 c6         1 KVW       0.174300
     15 C12          4.5070     1.8980    -0.2770 c3         1 KVW       0.170600
     16 O6           4.1500     3.2610     0.0350 oh         1 KVW      -0.712000
     17 C15          3.9210    -0.6210    -0.0310 c6         1 KVW       0.143300
     18 O4           5.2450    -0.9930     0.3980 oh         1 KVW      -0.719000
     19 C14          2.8790    -1.5980     0.5870 c6         1 KVW       0.137300
     20 O3           3.1530    -2.9540     0.1960 oh         1 KVW      -0.666000
     21 C2           1.4370    -1.1970     0.1610 c6         1 KVW       0.126300
     22 O2           0.4790    -2.0900     0.7660 oh         1 KVW      -0.729000
     23 H1          -7.1190     0.5830    -0.5930 ha         1 KVW       0.113500
     24 H2          -5.3230    -2.7340     1.4940 ha         1 KVW       0.113500
     25 H3          -7.3490    -1.5900     0.6030 ha         1 KVW       0.113000
     26 H8          -4.9010     1.6110    -0.9030 ha         1 KVW       0.118000
     27 H9          -3.0890    -1.7290     1.2000 ha         1 KVW       0.118000
     28 H10          1.2540     0.3890     1.6480 h1         1 KVW       0.072700
     29 H11          3.6180     0.9470     1.4650 h1         1 KVW       0.063700
     30 H12          5.5300     1.6920     0.0670 h1         1 KVW       0.038700
     31 H13          4.4940     1.7440    -1.3650 h1         1 KVW       0.038700
     32 H14          4.7700     3.8430    -0.4650 ho         1 KVW       0.505000
     33 H15          3.8530    -0.6970    -1.1270 h1         1 KVW       0.055700
     34 H16          5.2440    -1.9810     0.3850 ho         1 KVW       0.527000
     35 H17          2.9400    -1.5120     1.6830 h1         1 KVW       0.051700
     36 H18          2.3040    -3.4310     0.3510 ho         1 KVW       0.467000
     37 H19          1.3660    -1.2690    -0.9360 h1         1 KVW       0.058700
     38 H20         -0.3910    -1.6040     0.7240 ho         1 KVW       0.544000
     39 H6          -2.9130     2.5190    -1.1530 h4         1 KVW       0.162000
@<TRIPOS>BOND
     1     1     4 ar  
     2     1     9 ar  
     3     1    23 1   
     4     2     8 1   
     5     2     9 ar  
     6     2    10 ar  
     7     3     4 ar  
     8     3    10 ar  
     9     3    24 1   
    10     4    25 1   
    11     5     6 1   
    12     5    11 2   
    13     5    12 1   
    14     6     7 1   
    15     7     8 2   
    16     7    39 1   
    17     8    11 1   
    18     9    26 1   
    19    10    27 1   
    20    12    13 1   
    21    12    21 1   
    22    12    28 1   
    23    13    14 1   
    24    14    15 1   
    25    14    17 1   
    26    14    29 1   
    27    15    16 1   
    28    15    30 1   
    29    15    31 1   
    30    16    32 1   
    31    17    18 1   
    32    17    19 1   
    33    17    33 1   
    34    18    34 1   
    35    19    20 1   
    36    19    21 1   
    37    19    35 1   
    38    20    36 1   
    39    21    22 1   
    40    21    37 1   
    41    22    38 1   
@<TRIPOS>SUBSTRUCTURE
     1 KVW         1 TEMP              0 ****  ****    0 ROOT
