@<TRIPOS>MOLECULE
KVX
   34    36     1     0     0
SMALL
No Charge or Current Charge


@<TRIPOS>ATOM
      1 N1           8.4650    -0.5950    20.5810 ns         1 KVX      -0.162000
      2 C4           7.5990    -0.6980    18.3160 ca         1 KVX       0.319900
      3 C5           7.5540    -0.1130    19.6000 ca         1 KVX      -0.101000
      4 C6           9.3150     0.0990    21.4320 c          1 KVX       0.604100
      5 C7          10.0680    -0.9080    22.3390 c5         1 KVX      -0.118400
      6 C8           9.7940    -0.5390    23.8470 c5         1 KVX       0.165600
      7 C10         13.3020     0.2770    23.6980 ca         1 KVX      -0.126000
      8 C13         12.4770    -1.0550    21.3370 ca         1 KVX      -0.044000
      9 C12         13.8360    -0.7340    21.5360 ca         1 KVX       0.085000
     10 C11         14.2490    -0.0690    22.7110 ca         1 KVX      -0.058000
     11 C14         11.5540    -0.7030    22.3360 ca         1 KVX      -0.174300
     12 C9          11.9600    -0.0620    23.4830 ca         1 KVX       0.146100
     13 O2          10.9440     0.2250    24.3500 os         1 KVX      -0.323100
     14 O1           9.4380     1.3190    21.4340 o          1 KVX      -0.571100
     15 C1           6.5980     0.9080    19.8470 ca         1 KVX      -0.032300
     16 C            6.3950     1.5570    21.2230 c3         1 KVX       0.199900
     17 O            5.0020     1.7700    21.5020 oh         1 KVX      -0.665000
     18 N            6.8090    -0.3160    17.2870 nb         1 KVX      -0.649000
     19 C3           5.9240     0.6780    17.5160 ca         1 KVX       0.326900
     20 C2           5.7880     1.3060    18.7620 ca         1 KVX      -0.128000
     21 H1           8.5210    -1.6040    20.6490 hn         1 KVX       0.156000
     22 H2           8.3110    -1.4940    18.0980 h4         1 KVX       0.019100
     23 H3           9.7770    -1.9420    22.1180 hc         1 KVX       0.079700
     24 H4           8.8700     0.0360    23.9960 h1         1 KVX       0.073700
     25 H5           9.7140    -1.4540    24.4500 h1         1 KVX       0.073700
     26 H6          13.6030     0.7910    24.6070 ha         1 KVX       0.139000
     27 H7          12.1560    -1.5590    20.4290 ha         1 KVX       0.126000
     28 H8          15.2990     0.1780    22.8530 ha         1 KVX       0.135000
     29 H9           6.8230     0.9150    22.0030 h1         1 KVX       0.046700
     30 H10          6.9380     2.5120    21.2450 h1         1 KVX       0.046700
     31 H11          4.9500     2.1930    22.3880 ho         1 KVX       0.449000
     32 H12          5.2980     0.9740    16.6740 h4         1 KVX       0.024100
     33 H13          5.0440     2.0890    18.8800 ha         1 KVX       0.143000
     34 Cl          15.0220    -1.1590    20.3080 cl         1 KVX      -0.207000
@<TRIPOS>BOND
     1     1     3 1   
     2     1     4 1   
     3     1    21 1   
     4     2     3 ar  
     5     2    18 ar  
     6     2    22 1   
     7     3    15 ar  
     8     4     5 1   
     9     4    14 2   
    10     5     6 1   
    11     5    11 1   
    12     5    23 1   
    13     6    13 1   
    14     6    24 1   
    15     6    25 1   
    16     7    10 ar  
    17     7    12 ar  
    18     7    26 1   
    19     8     9 ar  
    20     8    11 ar  
    21     8    27 1   
    22     9    10 ar  
    23     9    34 1   
    24    10    28 1   
    25    11    12 ar  
    26    12    13 1   
    27    15    16 1   
    28    15    20 ar  
    29    16    17 1   
    30    16    29 1   
    31    16    30 1   
    32    17    31 1   
    33    18    19 ar  
    34    19    20 ar  
    35    19    32 1   
    36    20    33 1   
@<TRIPOS>SUBSTRUCTURE
     1 KVX         1 TEMP              0 ****  ****    0 ROOT
