@<TRIPOS>MOLECULE
KVX
   34    36     1     0     0
SMALL
abcg2


@<TRIPOS>ATOM
      1 N1           8.4950    -0.5690    20.8570 ns         1 KVX      -0.162000
      2 C4           8.3250    -0.2400    18.4710 ca         1 KVX       0.319900
      3 C5           7.8160    -0.0060    19.7450 ca         1 KVX      -0.101000
      4 C6           9.0700     0.1600    21.8480 c          1 KVX       0.604100
      5 C7           9.8910    -0.6620    22.8420 c5         1 KVX      -0.118400
      6 C8           9.9910     0.0040    24.2290 c5         1 KVX       0.165600
      7 C10         13.4420     0.2720    23.1650 ca         1 KVX      -0.126000
      8 C13         11.9500    -1.2440    21.3050 ca         1 KVX      -0.044000
      9 C12         13.3200    -1.0440    21.1460 ca         1 KVX       0.085000
     10 C11         14.0620    -0.2970    22.0540 ca         1 KVX      -0.058000
     11 C14         11.3420    -0.6780    22.4100 ca         1 KVX      -0.174300
     12 C9          12.0810     0.0660    23.3240 ca         1 KVX       0.146100
     13 O2          11.3370     0.5520    24.3510 os         1 KVX      -0.323100
     14 O1           8.9790     1.3770    21.9240 o          1 KVX      -0.571100
     15 C1           6.6380     0.7350    19.8860 ca         1 KVX      -0.032300
     16 C            6.0170     0.9800    21.2290 c3         1 KVX       0.199900
     17 O            4.6310     1.2700    21.0750 oh         1 KVX      -0.665000
     18 N            7.7570     0.2110    17.3540 nb         1 KVX      -0.649000
     19 C3           6.6420     0.9360    17.4890 ca         1 KVX       0.326900
     20 C2           6.0590     1.2170    18.7150 ca         1 KVX      -0.128000
     21 H1           8.7030    -1.5560    20.8120 hn         1 KVX       0.156000
     22 H2           9.2340    -0.8240    18.3660 h4         1 KVX       0.019100
     23 H3           9.4790    -1.6680    22.9160 hc         1 KVX       0.079700
     24 H4           9.2900     0.8270    24.3480 h1         1 KVX       0.073700
     25 H5           9.8570    -0.7250    25.0260 h1         1 KVX       0.073700
     26 H6          14.0090     0.8520    23.8810 ha         1 KVX       0.139000
     27 H7          11.3880    -1.8200    20.5820 ha         1 KVX       0.126000
     28 H8          15.1230    -0.1620    21.8990 ha         1 KVX       0.135000
     29 H9           6.1620     0.0950    21.8590 h1         1 KVX       0.046700
     30 H10          6.5380     1.8110    21.7120 h1         1 KVX       0.046700
     31 H11          4.3050     1.6100    21.9170 ho         1 KVX       0.449000
     32 H12          6.1920     1.3070    16.5740 h4         1 KVX       0.024100
     33 H13          5.1460     1.7930    18.7630 ha         1 KVX       0.143000
     34 CL          14.1270    -1.7560    19.7610 cl         1 KVX      -0.207000
@<TRIPOS>BOND
     1     1     3 1   
     2     1     4 1   
     3     1    21 1   
     4     2     3 ar  
     5     2    18 ar  
     6     2    22 1   
     7     3    15 ar  
     8     4     5 1   
     9     4    14 2   
    10     5     6 1   
    11     5    11 1   
    12     5    23 1   
    13     6    13 1   
    14     6    24 1   
    15     6    25 1   
    16     7    10 ar  
    17     7    12 ar  
    18     7    26 1   
    19     8     9 ar  
    20     8    11 ar  
    21     8    27 1   
    22     9    10 ar  
    23     9    34 1   
    24    10    28 1   
    25    11    12 ar  
    26    12    13 1   
    27    15    16 1   
    28    15    20 ar  
    29    16    17 1   
    30    16    29 1   
    31    16    30 1   
    32    17    31 1   
    33    18    19 ar  
    34    19    20 ar  
    35    19    32 1   
    36    20    33 1   
@<TRIPOS>SUBSTRUCTURE
     1 KVX         1 TEMP              0 ****  ****    0 ROOT
