@<TRIPOS>MOLECULE
KVY
   62    64     1     0     0
SMALL
abcg2


@<TRIPOS>ATOM
      1 N           33.5050    25.0720    40.7940 nv         1 KVY      -1.021000
      2 C1          32.4310    24.4630    41.4650 cc         1 KVY       0.177000
      3 N1          31.2540    23.1700    42.8710 na         1 KVY       0.070000
      4 O1          28.3670    23.0690    43.1660 o          1 KVY      -0.620100
      5 C2          31.0740    24.8350    41.3880 cc         1 KVY      -0.176000
      6 N2          28.2160    25.0430    42.0510 ns         1 KVY      -0.373100
      7 O2          22.5340    26.8490    41.7760 o          1 KVY      -0.616100
      8 C3          30.3570    24.0210    42.2690 cd         1 KVY      -0.228600
      9 N3          24.6460    24.9840    42.4890 na         1 KVY       0.065000
     10 O3          21.0100    31.6940    36.8680 o          1 KVY      -0.648100
     11 C4          32.5100    23.4340    42.3930 cd         1 KVY      -0.223000
     12 N4          23.9500    27.8290    40.2930 ns         1 KVY      -0.373100
     13 O4          22.5930    36.3350    37.2750 o          1 KVY      -0.629100
     14 C5          30.9890    22.1510    43.8770 c3         1 KVY       0.062900
     15 N5          21.2640    29.9440    39.1770 na         1 KVY       0.066000
     16 C6          28.9200    23.9830    42.5450 c          1 KVY       0.644700
     17 N6          23.2510    32.0380    36.9500 ns         1 KVY      -0.499900
     18 C7          26.8310    25.2070    42.0910 cc         1 KVY      -0.017400
     19 N7          21.2090    34.5700    37.0330 ns         1 KVY      -0.509900
     20 C8          26.1540    26.2680    41.4550 cc         1 KVY      -0.180000
     21 C9          24.7950    26.1100    41.7110 cd         1 KVY      -0.231600
     22 C10         25.8720    24.4270    42.7220 cd         1 KVY      -0.173000
     23 C12         23.6620    26.9390    41.2840 c          1 KVY       0.646700
     24 C13         23.0650    28.7480    39.7250 cc         1 KVY      -0.019400
     25 C14         23.4270    29.6480    38.7010 cc         1 KVY      -0.175000
     26 C15         22.2930    30.3820    38.3740 cd         1 KVY      -0.236600
     27 C16         21.7210    28.9590    40.0040 cd         1 KVY      -0.169000
     28 C18         22.1220    31.4130    37.3480 c          1 KVY       0.647700
     29 C19         23.3200    32.9520    35.8200 c3         1 KVY       0.101000
     30 C20         23.5230    34.4140    36.2110 c3         1 KVY      -0.182400
     31 C21         22.3950    35.1750    36.8930 c          1 KVY       0.592100
     32 C22         20.0880    35.2280    37.6810 c3         1 KVY       0.095300
     33 HN          33.2300    25.4620    39.9020 hn         1 KVY       0.423500
     34 HNA         34.2860    24.4450    40.6540 hn         1 KVY       0.423500
     35 HN7         21.0940    33.5900    36.7890 hn         1 KVY       0.348500
     36 HN2         28.7300    25.7770    41.5900 hn         1 KVY       0.325500
     37 HN4         24.8740    27.8070    39.8900 hn         1 KVY       0.325500
     38 HN6         24.1110    31.8270    37.4310 hn         1 KVY       0.322500
     39 H2          30.6680    25.5950    40.7390 ha         1 KVY       0.129000
     40 H4          33.3620    22.8790    42.7480 h4         1 KVY       0.151000
     41 H8          26.6190    27.0620    40.8930 ha         1 KVY       0.128000
     42 H10         25.9740    23.5310    43.3040 h4         1 KVY       0.178000
     43 H11         22.9370    25.0570    43.7170 h1         1 KVY       0.062367
     44 H11A        22.7110    24.2270    42.1720 h1         1 KVY       0.062367
     45 H11B        23.6560    23.4520    43.4600 h1         1 KVY       0.062367
     46 H14         24.3960    29.7230    38.2350 ha         1 KVY       0.129000
     47 H16         21.0750    28.4880    40.7200 h4         1 KVY       0.179000
     48 H17         19.3500    30.1620    38.3240 h1         1 KVY       0.062033
     49 H17A        19.4130    30.0120    40.0950 h1         1 KVY       0.062033
     50 H17B        19.8910    31.5300    39.3080 h1         1 KVY       0.062033
     51 H19         24.1620    32.6500    35.1950 h1         1 KVY       0.062200
     52 H19A        22.4160    32.8210    35.2280 h1         1 KVY       0.062200
     53 H20         24.3960    34.5050    36.8620 hc         1 KVY       0.075200
     54 H20A        23.7610    34.9800    35.3060 hc         1 KVY       0.075200
     55 H22         19.2330    34.5550    37.6520 h1         1 KVY       0.038367
     56 H22A        19.8300    36.1540    37.1650 h1         1 KVY       0.038367
     57 H22B        20.3160    35.4690    38.7210 h1         1 KVY       0.038367
     58 H5          30.3910    21.3410    43.4630 h1         1 KVY       0.060367
     59 H5A         31.9480    21.7600    44.2110 h1         1 KVY       0.060367
     60 H5B         30.4580    22.5770    44.7250 h1         1 KVY       0.060367
     61 C11         23.4080    24.4000    42.9890 c3         1 KVY       0.061900
     62 C17         19.8950    30.4450    39.2220 c3         1 KVY       0.061900
@<TRIPOS>BOND
     1     1     2 1   
     2     1    33 1   
     3     1    34 1   
     4     2     5 1   
     5     2    11 2   
     6     3     8 1   
     7     3    11 1   
     8     3    14 1   
     9     4    16 2   
    10     5     8 2   
    11     5    39 1   
    12     6    16 1   
    13     6    18 1   
    14     6    36 1   
    15     7    23 2   
    16     8    16 1   
    17     9    21 1   
    18     9    22 1   
    19     9    61 1   
    20    10    28 2   
    21    11    40 1   
    22    12    23 1   
    23    12    24 1   
    24    12    37 1   
    25    13    31 2   
    26    14    58 1   
    27    14    59 1   
    28    14    60 1   
    29    15    26 1   
    30    15    27 1   
    31    15    62 1   
    32    17    28 1   
    33    17    29 1   
    34    17    38 1   
    35    18    20 1   
    36    18    22 2   
    37    19    31 1   
    38    19    32 1   
    39    19    35 1   
    40    20    21 2   
    41    20    41 1   
    42    21    23 1   
    43    22    42 1   
    44    24    25 1   
    45    24    27 2   
    46    25    26 2   
    47    25    46 1   
    48    26    28 1   
    49    27    47 1   
    50    29    30 1   
    51    29    51 1   
    52    29    52 1   
    53    30    31 1   
    54    30    53 1   
    55    30    54 1   
    56    32    55 1   
    57    32    56 1   
    58    32    57 1   
    59    43    61 1   
    60    44    61 1   
    61    45    61 1   
    62    48    62 1   
    63    49    62 1   
    64    50    62 1   
@<TRIPOS>SUBSTRUCTURE
     1 KVY         1 TEMP              0 ****  ****    0 ROOT
