@<TRIPOS>MOLECULE
KVY
   62    64     1     0     0
SMALL
No Charge or Current Charge


@<TRIPOS>ATOM
      1 N           32.6830    26.0250    40.1220 nv         1 KVY      -1.021000
      2 C1          32.0020    25.2600    41.0150 cc         1 KVY       0.177000
      3 N1          31.3940    23.8090    42.5720 na         1 KVY       0.070000
      4 O1          28.5350    23.4310    43.5180 o          1 KVY      -0.620100
      5 C2          30.6160    25.3600    41.1930 cc         1 KVY      -0.176000
      6 N2          27.8960    25.0630    42.0320 ns         1 KVY      -0.373100
      7 O2          22.0480    26.3830    41.8960 o          1 KVY      -0.616100
      8 C3          30.2170    24.4630    42.1610 cd         1 KVY      -0.228600
      9 N3          24.4440    24.8420    42.9410 na         1 KVY       0.065000
     10 O3          20.9720    31.6280    36.9080 o          1 KVY      -0.648100
     11 C4          32.4900    24.3110    41.8570 cd         1 KVY      -0.223000
     12 N4          23.4720    27.5150    40.4910 ns         1 KVY      -0.373100
     13 O4          23.0600    33.9240    38.5650 o          1 KVY      -0.629100
     14 C5          31.4860    22.7570    43.5960 c3         1 KVY       0.062900
     15 N5          20.8480    29.4860    39.0680 na         1 KVY       0.066000
     16 C6          28.8240    24.2470    42.6530 c          1 KVY       0.644700
     17 N6          23.2230    31.2960    36.7970 ns         1 KVY      -0.499900
     18 C7          26.5240    25.1450    42.2250 cc         1 KVY      -0.017400
     19 N7          22.3930    35.3140    36.8950 ns         1 KVY      -0.509900
     20 C8          25.6790    26.0210    41.5270 cc         1 KVY      -0.180000
     21 C9          24.3820    25.8470    41.9580 cd         1 KVY      -0.231600
     22 C10         25.7680    24.4130    43.0990 cd         1 KVY      -0.173000
     23 C12         23.1780    26.5840    41.4700 c          1 KVY       0.646700
     24 C13         22.6220    28.3760    39.8090 cc         1 KVY      -0.019400
     25 C14         23.0420    29.2850    38.8260 cc         1 KVY      -0.175000
     26 C15         21.9530    29.9820    38.3540 cd         1 KVY      -0.236600
     27 C16         21.2690    28.4940    39.9640 cd         1 KVY      -0.169000
     28 C18         21.9690    31.0400    37.3030 c          1 KVY       0.647700
     29 C19         23.5330    32.3110    35.7890 c3         1 KVY       0.101000
     30 C20         24.0920    33.6160    36.3940 c3         1 KVY      -0.182400
     31 C21         23.1330    34.2670    37.3940 c          1 KVY       0.592100
     32 C22         21.4260    36.0880    37.6760 c3         1 KVY       0.095300
     33 HN          32.1820    26.6370    39.4810 hn         1 KVY       0.423500
     34 HNA         33.6740    25.8600    39.9540 hn         1 KVY       0.423500
     35 HN7         22.5240    35.5450    35.9160 hn         1 KVY       0.348500
     36 HN2         28.3060    25.6770    41.3420 hn         1 KVY       0.325500
     37 HN4         24.4540    27.5500    40.2600 hn         1 KVY       0.325500
     38 HN6         23.9800    30.7520    37.1880 hn         1 KVY       0.322500
     39 H2          29.9900    26.0500    40.6370 ha         1 KVY       0.129000
     40 H4          33.5020    23.9580    42.0050 h4         1 KVY       0.151000
     41 H8          26.0330    26.7150    40.7700 ha         1 KVY       0.128000
     42 H10         26.0480    23.6420    43.8060 h4         1 KVY       0.178000
     43 H11         22.8290    25.1130    44.2670 h1         1 KVY       0.062367
     44 H11A        22.5770    23.8660    43.0070 h1         1 KVY       0.062367
     45 H11B        23.6510    23.5310    44.3960 h1         1 KVY       0.062367
     46 H14         24.0760    29.3930    38.5120 ha         1 KVY       0.129000
     47 H16         20.5800    27.9740    40.6180 h4         1 KVY       0.179000
     48 H17         19.1230    29.7460    37.8860 h1         1 KVY       0.062033
     49 H17A        18.8080    29.3710    39.6050 h1         1 KVY       0.062033
     50 H17B        19.3830    30.9980    39.1390 h1         1 KVY       0.062033
     51 H19         24.2740    31.8920    35.0940 h1         1 KVY       0.062200
     52 H19A        22.6300    32.5370    35.2050 h1         1 KVY       0.062200
     53 H20         25.0330    33.3850    36.9060 hc         1 KVY       0.075200
     54 H20A        24.2780    34.3020    35.5590 hc         1 KVY       0.075200
     55 H22         20.9650    36.8520    37.0380 h1         1 KVY       0.038367
     56 H22A        21.9360    36.5780    38.5160 h1         1 KVY       0.038367
     57 H22B        20.6450    35.4200    38.0630 h1         1 KVY       0.038367
     58 H5          30.8730    21.8990    43.2950 h1         1 KVY       0.060367
     59 H5A         32.5270    22.4340    43.7070 h1         1 KVY       0.060367
     60 H5B         31.1250    23.1460    44.5550 h1         1 KVY       0.060367
     61 C11         23.3050    24.3050    43.6990 c3         1 KVY       0.061900
     62 C17         19.4540    29.9270    38.9150 c3         1 KVY       0.061900
@<TRIPOS>BOND
     1     1     2 1   
     2     1    33 1   
     3     1    34 1   
     4     2     5 1   
     5     2    11 2   
     6     3     8 1   
     7     3    11 1   
     8     3    14 1   
     9     4    16 2   
    10     5     8 2   
    11     5    39 1   
    12     6    16 1   
    13     6    18 1   
    14     6    36 1   
    15     7    23 2   
    16     8    16 1   
    17     9    21 1   
    18     9    22 1   
    19     9    61 1   
    20    10    28 2   
    21    11    40 1   
    22    12    23 1   
    23    12    24 1   
    24    12    37 1   
    25    13    31 2   
    26    14    58 1   
    27    14    59 1   
    28    14    60 1   
    29    15    26 1   
    30    15    27 1   
    31    15    62 1   
    32    17    28 1   
    33    17    29 1   
    34    17    38 1   
    35    18    20 1   
    36    18    22 2   
    37    19    31 1   
    38    19    32 1   
    39    19    35 1   
    40    20    21 2   
    41    20    41 1   
    42    21    23 1   
    43    22    42 1   
    44    24    25 1   
    45    24    27 2   
    46    25    26 2   
    47    25    46 1   
    48    26    28 1   
    49    27    47 1   
    50    29    30 1   
    51    29    51 1   
    52    29    52 1   
    53    30    31 1   
    54    30    53 1   
    55    30    54 1   
    56    32    55 1   
    57    32    56 1   
    58    32    57 1   
    59    43    61 1   
    60    44    61 1   
    61    45    61 1   
    62    48    62 1   
    63    49    62 1   
    64    50    62 1   
@<TRIPOS>SUBSTRUCTURE
     1 KVY         1 TEMP              0 ****  ****    0 ROOT
