@<TRIPOS>MOLECULE
KVZ
   56    59     1     0     0
SMALL
No Charge or Current Charge


@<TRIPOS>ATOM
      1 C13        -24.2020    45.3040    10.0310 ca         1 KVZ      -0.241500
      2 C21        -24.4470    50.5600     7.0430 c3         1 KVZ       0.038000
      3 C01        -26.3990    43.4770     8.9620 c3         1 KVZ       0.204600
      4 N05        -25.9980    43.2420    10.3670 n3         1 KVZ      -0.799500
      5 C06        -27.0170    42.4990    11.1370 c3         1 KVZ       0.204600
      6 S10        -25.4270    44.6300    11.1770 sy         1 KVZ       1.217600
      7 O11        -24.7160    44.1380    12.3630 o          1 KVZ      -0.533500
      8 O12        -26.5650    45.5500    11.2910 o          1 KVZ      -0.533500
      9 C14        -24.4400    46.5640     9.4290 ca         1 KVZ      -0.063000
     10 C16        -23.5090    47.1220     8.5240 ca         1 KVZ      -0.036000
     11 N17        -23.6830    48.3840     7.8850 ns         1 KVZ      -0.141000
     12 C19        -24.7190    49.3110     7.9050 c          1 KVZ       0.594100
     13 O20        -25.7600    49.1670     8.5400 o          1 KVZ      -0.589100
     14 N24        -25.5450    51.5670     7.0360 n          1 KVZ      -0.383400
     15 C25        -25.5760    52.6330     7.8940 c          1 KVZ       0.617000
     16 O26        -24.7420    52.9160     8.7350 o          1 KVZ      -0.547000
     17 N27        -26.7190    53.3250     7.6490 ns         1 KVZ      -0.507900
     18 C29        -27.5260    52.7170     6.5690 c5         1 KVZ       0.099700
     19 C30        -27.6360    53.6840     5.3580 c6         1 KVZ      -0.072400
     20 C33        -28.6920    54.7810     5.5970 c6         1 KVZ      -0.071400
     21 C36        -30.0860    54.1430     5.7500 c6         1 KVZ      -0.037100
     22 C39        -30.1030    52.9530     6.7140 ca         1 KVZ      -0.048300
     23 C40        -31.3450    52.5230     7.2210 ca         1 KVZ      -0.118000
     24 C42        -31.4180    51.4430     8.1130 ca         1 KVZ      -0.090000
     25 C44        -30.2440    50.7880     8.5080 ca         1 KVZ      -0.113000
     26 C46        -29.0020    51.2050     8.0050 ca         1 KVZ      -0.085000
     27 C48        -28.9100    52.2810     7.0910 ca         1 KVZ      -0.105300
     28 C49        -26.6350    51.4740     6.1920 c          1 KVZ       0.569000
     29 O50        -26.8170    50.5930     5.3610 o          1 KVZ      -0.491000
     30 C51        -22.3360    46.4070     8.2290 ca         1 KVZ      -0.111000
     31 C53        -22.0970    45.1550     8.8170 ca         1 KVZ      -0.090000
     32 C55        -23.0200    44.5960     9.7140 ca         1 KVZ       0.190000
     33 Cl1        -22.6390    43.0050    10.3770 cl         1 KVZ      -0.166000
     34 H1         -24.2560    50.2200     6.0170 h1         1 KVZ       0.088700
     35 H2         -23.5220    51.0220     7.4110 h1         1 KVZ       0.088700
     36 H3         -26.7260    42.5410     8.4920 h1         1 KVZ       0.053033
     37 H4         -27.2300    44.1930     8.9010 h1         1 KVZ       0.053033
     38 H5         -25.5650    43.8650     8.3620 h1         1 KVZ       0.053033
     39 H6         -26.6420    42.2300    12.1340 h1         1 KVZ       0.053033
     40 H7         -27.9320    43.0940    11.2640 h1         1 KVZ       0.053033
     41 H8         -27.2880    41.5670    10.6240 h1         1 KVZ       0.053033
     42 H9         -25.3520    47.0990     9.6780 ha         1 KVZ       0.152000
     43 H10        -22.8990    48.6540     7.3050 hn         1 KVZ       0.157000
     44 H11        -26.9450    54.1420     8.2030 hn         1 KVZ       0.354500
     45 H12        -27.9090    53.1160     4.4570 hc         1 KVZ       0.066200
     46 H13        -26.6580    54.1390     5.1470 hc         1 KVZ       0.066200
     47 H14        -28.6960    55.4940     4.7620 hc         1 KVZ       0.049200
     48 H15        -28.4410    55.3540     6.5000 hc         1 KVZ       0.049200
     49 H16        -30.4400    53.8050     4.7660 hc         1 KVZ       0.056200
     50 H17        -30.8000    54.9090     6.0840 hc         1 KVZ       0.056200
     51 H18        -32.2590    53.0310     6.9230 ha         1 KVZ       0.114000
     52 H19        -32.3810    51.1200     8.5020 ha         1 KVZ       0.117000
     53 H20        -30.2950    49.9560     9.2070 ha         1 KVZ       0.118000
     54 H21        -28.1050    50.6860     8.3360 ha         1 KVZ       0.136000
     55 H22        -21.6050    46.8170     7.5350 ha         1 KVZ       0.119000
     56 H23        -21.1880    44.6100     8.5730 ha         1 KVZ       0.135000
@<TRIPOS>BOND
     1     1     6 1   
     2     1     9 ar  
     3     1    32 ar  
     4     2    12 1   
     5     2    14 1   
     6     2    34 1   
     7     2    35 1   
     8     3     4 1   
     9     3    36 1   
    10     3    37 1   
    11     3    38 1   
    12     4     5 1   
    13     4     6 1   
    14     5    39 1   
    15     5    40 1   
    16     5    41 1   
    17     6     7 2   
    18     6     8 2   
    19     9    10 ar  
    20     9    42 1   
    21    10    11 1   
    22    10    30 ar  
    23    11    12 1   
    24    11    43 1   
    25    12    13 2   
    26    14    15 1   
    27    14    28 1   
    28    15    16 2   
    29    15    17 1   
    30    17    18 1   
    31    17    44 1   
    32    18    19 1   
    33    18    27 1   
    34    18    28 1   
    35    19    20 1   
    36    19    45 1   
    37    19    46 1   
    38    20    21 1   
    39    20    47 1   
    40    20    48 1   
    41    21    22 1   
    42    21    49 1   
    43    21    50 1   
    44    22    23 ar  
    45    22    27 ar  
    46    23    24 ar  
    47    23    51 1   
    48    24    25 ar  
    49    24    52 1   
    50    25    26 ar  
    51    25    53 1   
    52    26    27 ar  
    53    26    54 1   
    54    28    29 2   
    55    30    31 ar  
    56    30    55 1   
    57    31    32 ar  
    58    31    56 1   
    59    32    33 1   
@<TRIPOS>SUBSTRUCTURE
     1 KVZ         1 TEMP              0 ****  ****    0 ROOT
