@<TRIPOS>MOLECULE
KVZ
   56    59     1     0     0
SMALL
abcg2


@<TRIPOS>ATOM
      1 C13        -24.0750    45.2010     9.8330 ca         1 KVZ      -0.241500
      2 C21        -24.3390    50.1860     6.7120 c3         1 KVZ       0.038000
      3 C01        -27.3390    44.8280     8.5790 c3         1 KVZ       0.204600
      4 N05        -26.8250    45.0590     9.9290 n3         1 KVZ      -0.799500
      5 C06        -27.3490    46.2400    10.6190 c3         1 KVZ       0.204600
      6 S10        -25.4950    44.3010    10.4560 sy         1 KVZ       1.217600
      7 O11        -25.4640    42.9910     9.8510 o          1 KVZ      -0.533500
      8 O12        -25.4640    44.4110    11.8950 o          1 KVZ      -0.533500
      9 C14        -24.3000    46.3530     9.0900 ca         1 KVZ      -0.063000
     10 C16        -23.2270    47.0870     8.5850 ca         1 KVZ      -0.036000
     11 N17        -23.3930    48.2580     7.8310 ns         1 KVZ      -0.141000
     12 C19        -24.5330    48.9630     7.6130 c          1 KVZ       0.594100
     13 O20        -25.6320    48.6700     8.0580 o          1 KVZ      -0.589100
     14 N24        -25.4260    51.1100     6.8760 n          1 KVZ      -0.383400
     15 C25        -25.5410    51.9480     8.0070 c          1 KVZ       0.617000
     16 O26        -24.6970    52.0310     8.8810 o          1 KVZ      -0.547000
     17 N27        -26.7180    52.5910     7.8910 ns         1 KVZ      -0.507900
     18 C29        -27.5110    52.1620     6.7360 c5         1 KVZ       0.099700
     19 C30        -27.7410    53.3120     5.7450 c6         1 KVZ      -0.072400
     20 C33        -28.8580    54.2250     6.2300 c6         1 KVZ      -0.071400
     21 C36        -30.1710    53.4520     6.2700 c6         1 KVZ      -0.037100
     22 C39        -30.0470    52.1220     6.9760 ca         1 KVZ      -0.048300
     23 C40        -31.2010    51.4790     7.4350 ca         1 KVZ      -0.118000
     24 C42        -31.1400    50.2550     8.0820 ca         1 KVZ      -0.090000
     25 C44        -29.9040    49.6440     8.2900 ca         1 KVZ      -0.113000
     26 C46        -28.7510    50.2700     7.8440 ca         1 KVZ      -0.085000
     27 C48        -28.8120    51.5010     7.1820 ca         1 KVZ      -0.105300
     28 C49        -26.5560    51.1360     6.1040 c          1 KVZ       0.569000
     29 O50        -26.7550    50.4840     5.1020 o          1 KVZ      -0.491000
     30 C51        -21.9250    46.6450     8.8290 ca         1 KVZ      -0.111000
     31 C53        -21.7010    45.4980     9.5700 ca         1 KVZ      -0.090000
     32 C55        -22.7700    44.7720    10.0790 ca         1 KVZ       0.190000
     33 CL1        -22.4240    43.3460    11.0180 cl         1 KVZ      -0.166000
     34 H1         -24.3270    49.8530     5.6730 h1         1 KVZ       0.088700
     35 H2         -23.3950    50.6850     6.9250 h1         1 KVZ       0.088700
     36 H3         -28.4190    44.6870     8.6380 h1         1 KVZ       0.053033
     37 H4         -27.1290    45.6840     7.9320 h1         1 KVZ       0.053033
     38 H5         -26.8890    43.9360     8.1550 h1         1 KVZ       0.053033
     39 H6         -26.8540    46.3650    11.5770 h1         1 KVZ       0.053033
     40 H7         -27.2000    47.1360    10.0130 h1         1 KVZ       0.053033
     41 H8         -28.4180    46.1010    10.7880 h1         1 KVZ       0.053033
     42 H9         -25.3000    46.6910     8.8990 ha         1 KVZ       0.152000
     43 H10        -22.5450    48.6420     7.4370 hn         1 KVZ       0.157000
     44 H11        -27.0850    53.1590     8.6380 hn         1 KVZ       0.354500
     45 H12        -28.0140    52.8780     4.7790 hc         1 KVZ       0.066200
     46 H13        -26.8020    53.8510     5.6160 hc         1 KVZ       0.066200
     47 H14        -28.9500    55.0870     5.5670 hc         1 KVZ       0.049200
     48 H15        -28.6170    54.6120     7.2250 hc         1 KVZ       0.049200
     49 H16        -30.5090    53.2720     5.2430 hc         1 KVZ       0.056200
     50 H17        -30.9540    54.0410     6.7510 hc         1 KVZ       0.056200
     51 H18        -32.1610    51.9590     7.2820 ha         1 KVZ       0.114000
     52 H19        -32.0490    49.7790     8.4280 ha         1 KVZ       0.117000
     53 H20        -29.8400    48.6890     8.7960 ha         1 KVZ       0.118000
     54 H21        -27.7910    49.7960     8.0090 ha         1 KVZ       0.136000
     55 H22        -21.0830    47.2040     8.4420 ha         1 KVZ       0.119000
     56 H23        -20.6910    45.1630     9.7590 ha         1 KVZ       0.135000
@<TRIPOS>BOND
     1     1     6 1   
     2     1     9 ar  
     3     1    32 ar  
     4     2    12 1   
     5     2    14 1   
     6     2    34 1   
     7     2    35 1   
     8     3     4 1   
     9     3    36 1   
    10     3    37 1   
    11     3    38 1   
    12     4     5 1   
    13     4     6 1   
    14     5    39 1   
    15     5    40 1   
    16     5    41 1   
    17     6     7 2   
    18     6     8 2   
    19     9    10 ar  
    20     9    42 1   
    21    10    11 1   
    22    10    30 ar  
    23    11    12 1   
    24    11    43 1   
    25    12    13 2   
    26    14    15 1   
    27    14    28 1   
    28    15    16 2   
    29    15    17 1   
    30    17    18 1   
    31    17    44 1   
    32    18    19 1   
    33    18    27 1   
    34    18    28 1   
    35    19    20 1   
    36    19    45 1   
    37    19    46 1   
    38    20    21 1   
    39    20    47 1   
    40    20    48 1   
    41    21    22 1   
    42    21    49 1   
    43    21    50 1   
    44    22    23 ar  
    45    22    27 ar  
    46    23    24 ar  
    47    23    51 1   
    48    24    25 ar  
    49    24    52 1   
    50    25    26 ar  
    51    25    53 1   
    52    26    27 ar  
    53    26    54 1   
    54    28    29 2   
    55    30    31 ar  
    56    30    55 1   
    57    31    32 ar  
    58    31    56 1   
    59    32    33 1   
@<TRIPOS>SUBSTRUCTURE
     1 KVZ         1 TEMP              0 ****  ****    0 ROOT
