@<TRIPOS>MOLECULE
KW1
   24    24     1     0     0
SMALL
abcg2


@<TRIPOS>ATOM
      1 C11         -2.0740     0.3450    -0.0030 c3         1 KW1      -0.081400
      2 C13         -4.7070     1.0320    -0.0610 c3         1 KW1      -0.093400
      3 C14         -6.1980     0.6530     0.0050 c          1 KW1       0.736000
      4 C02          3.6190    -1.2640    -0.0150 cc         1 KW1       0.239300
      5 C05          1.4620    -0.8430    -0.0000 cd         1 KW1       0.431900
      6 C06          2.7470    -0.2280    -0.0060 cd         1 KW1      -0.225900
      7 C09         -0.9820    -0.6970     0.0320 c          1 KW1       0.619100
      8 N04          1.5710    -2.1410    -0.0050 nc         1 KW1      -0.359300
      9 N08          0.2750    -0.1550     0.0060 ns         1 KW1      -0.492400
     10 O03          2.9200    -2.3950    -0.0140 os         1 KW1      -0.074700
     11 O10         -1.1920    -1.8860     0.0740 o          1 KW1      -0.502100
     12 O15         -6.4610    -0.5520     0.1700 o          1 KW1      -0.712500
     13 O16         -6.9970     1.5990    -0.1150 o          1 KW1      -0.712500
     14 S12         -3.6920    -0.4540     0.1190 ss         1 KW1      -0.300000
     15 BR           3.1230     1.5850     0.0020 br         1 KW1      -0.050100
     16 H112        -1.9260     1.0590     0.8120 h1         1 KW1       0.061200
     17 H111        -1.9950     0.9130    -0.9350 h1         1 KW1       0.061200
     18 H132        -4.4870     1.5200    -1.0140 h1         1 KW1       0.034700
     19 H131        -4.4710     1.7520     0.7270 h1         1 KW1       0.034700
     20 H012         5.4620    -1.6570     0.9680 hc         1 KW1       0.065033
     21 H013         5.4460    -2.0660    -0.7480 hc         1 KW1       0.065033
     22 H011         5.5300    -0.3760    -0.2430 hc         1 KW1       0.065033
     23 H081         0.3450     0.8530    -0.0180 hn         1 KW1       0.331500
     24 C01          5.0940    -1.3450    -0.0110 c3         1 KW1      -0.140400
@<TRIPOS>BOND
     1     1     7 1   
     2     1    14 1   
     3     1    16 1   
     4     1    17 1   
     5     2     3 1   
     6     2    14 1   
     7     2    18 1   
     8     2    19 1   
     9     3    12 1   
    10     3    13 1   
    11     4     6 2   
    12     4    10 1   
    13     4    24 1   
    14     5     6 1   
    15     5     8 2   
    16     5     9 1   
    17     6    15 1   
    18     7     9 1   
    19     7    11 2   
    20     8    10 1   
    21     9    23 1   
    22    20    24 1   
    23    21    24 1   
    24    22    24 1   
@<TRIPOS>SUBSTRUCTURE
     1 KW1         1 TEMP              0 ****  ****    0 ROOT
