@<TRIPOS>MOLECULE
KW1
   24    24     1     0     0
SMALL
No Charge or Current Charge


@<TRIPOS>ATOM
      1 C11         -2.0750     0.1820    -0.0020 c3         1 KW1      -0.081400
      2 C13         -4.7650     1.1040     0.0770 c3         1 KW1      -0.093400
      3 C14         -6.2960     0.9090    -0.0140 c          1 KW1       0.736000
      4 C02          3.6890    -1.2620    -0.0710 cc         1 KW1       0.239300
      5 C05          1.4980    -1.0430    -0.1060 cd         1 KW1       0.431900
      6 C06          2.7020    -0.3370     0.0680 cd         1 KW1      -0.225900
      7 C09         -0.9720    -0.8840    -0.1620 c          1 KW1       0.619100
      8 N04          1.6830    -2.3280    -0.3390 nc         1 KW1      -0.359300
      9 N08          0.3010    -0.3790    -0.0240 ns         1 KW1      -0.492400
     10 O03          3.1190    -2.4880    -0.3190 os         1 KW1      -0.074700
     11 O10         -1.2090    -2.0610    -0.3900 o          1 KW1      -0.502100
     12 O15         -6.9070     0.6440     1.0130 o          1 KW1      -0.712500
     13 O16         -6.8320     1.0410    -1.1050 o          1 KW1      -0.712500
     14 S12         -3.8080    -0.4680    -0.1840 ss         1 KW1      -0.300000
     15 Br           2.9040     1.5110     0.4200 br         1 KW1      -0.050100
     16 H112        -1.9660     0.6350     0.9920 h1         1 KW1       0.061200
     17 H111        -1.9040     0.9610    -0.7540 h1         1 KW1       0.061200
     18 H132        -4.4600     1.8370    -0.6800 h1         1 KW1       0.034700
     19 H131        -4.5210     1.5110     1.0660 h1         1 KW1       0.034700
     20 H012         5.4890    -0.7640     0.9880 hc         1 KW1       0.065033
     21 H013         5.6690    -2.1060    -0.1590 hc         1 KW1       0.065033
     22 H011         5.5500    -0.4390    -0.7560 hc         1 KW1       0.065033
     23 H081         0.3380     0.6140     0.1630 hn         1 KW1       0.331500
     24 C01          5.1830    -1.1380     0.0050 c3         1 KW1      -0.140400
@<TRIPOS>BOND
     1     1     7 1   
     2     1    14 1   
     3     1    16 1   
     4     1    17 1   
     5     2     3 1   
     6     2    14 1   
     7     2    18 1   
     8     2    19 1   
     9     3    12 1   
    10     3    13 1   
    11     4     6 2   
    12     4    10 1   
    13     4    24 1   
    14     5     6 1   
    15     5     8 2   
    16     5     9 1   
    17     6    15 1   
    18     7     9 1   
    19     7    11 2   
    20     8    10 1   
    21     9    23 1   
    22    20    24 1   
    23    21    24 1   
    24    22    24 1   
@<TRIPOS>SUBSTRUCTURE
     1 KW1         1 TEMP              0 ****  ****    0 ROOT
