@<TRIPOS>MOLECULE
KW2
   64    68     1     0     0
SMALL
No Charge or Current Charge


@<TRIPOS>ATOM
      1 N1         192.2550   168.1740   159.6010 na         1 KW2      -0.110700
      2 C1F        194.4500   171.3670   161.1330 ca         1 KW2      -0.138000
      3 N          189.0070   170.5590   161.3460 n7         1 KW2      -0.868400
      4 C          191.1800   169.4280   161.1830 cc         1 KW2      -0.150400
      5 O          193.6860   166.4870   158.6980 os         1 KW2      -0.443000
      6 C1         190.1260   169.9740   162.1130 c3         1 KW2       0.240000
      7 C12        189.1030   174.3120   160.6970 cy         1 KW2      -0.064700
      8 C13        189.1100   174.4480   159.1150 cy         1 KW2      -0.056000
      9 C14        187.8450   173.4880   159.2140 cy         1 KW2      -0.062700
     10 C15        188.1300   171.9640   159.4480 c6         1 KW2      -0.042700
     11 C16        189.3050   171.7070   160.4540 c6         1 KW2       0.169500
     12 C17        189.7050   172.9850   161.2640 c6         1 KW2      -0.093400
     13 C18        187.5440   174.1860   160.5890 cy         1 KW2      -0.097400
     14 C19        188.8250   175.8720   158.5520 c3         1 KW2      -0.075100
     15 C1A        190.3730   173.9910   158.3350 c3         1 KW2      -0.075100
     16 C1B        192.4990   169.9600   160.9590 ca         1 KW2      -0.095800
     17 C1C        193.1140   169.1880   160.0070 ca         1 KW2      -0.045200
     18 C1D        191.0560   168.3350   160.3300 cd         1 KW2      -0.119100
     19 C1E        193.1370   171.0630   161.5460 ca         1 KW2      -0.068000
     20 C1G        195.0940   170.5710   160.1570 ca         1 KW2      -0.100000
     21 C1H        194.4270   169.4670   159.5860 ca         1 KW2      -0.119000
     22 C1I        192.4630   167.2470   158.4610 c6         1 KW2       0.295300
     23 C1K        193.4650   165.6880   156.3470 c6         1 KW2       0.137300
     24 C1L        194.4240   166.0830   157.5090 c6         1 KW2       0.123600
     25 C1M        192.6430   166.9610   155.9220 c6         1 KW2       0.173300
     26 C1N        192.5010   168.0010   157.0880 c6         1 KW2       0.086300
     27 C1O        188.3200   171.1510   158.1360 c3         1 KW2      -0.082100
     28 O1         191.3530   168.8550   156.8610 oh         1 KW2      -0.718000
     29 O12        193.2370   167.6220   154.7900 oh         1 KW2      -0.657000
     30 O13        192.5700   164.6350   156.7770 oh         1 KW2      -0.712000
     31 H1         194.9720   172.2160   161.5690 ha         1 KW2       0.110000
     32 H2         188.2820   170.8490   162.0110 hn         1 KW2       0.408000
     33 H4         190.5720   170.7210   162.7830 h1         1 KW2       0.035200
     34 H5         189.7580   169.1530   162.7420 h1         1 KW2       0.035200
     35 H6         189.4740   175.1780   161.2580 hc         1 KW2       0.062700
     36 H7         187.0780   173.6250   158.4430 hc         1 KW2       0.063700
     37 H8         187.2120   171.5510   159.8900 hc         1 KW2       0.048700
     38 H9         190.1800   171.4280   159.8500 h1         1 KW2       0.059700
     39 H10        189.3890   172.8860   162.3110 hc         1 KW2       0.039700
     40 H11        190.8000   173.0640   161.2910 hc         1 KW2       0.039700
     41 H12        186.9940   175.1310   160.5330 hc         1 KW2       0.048700
     42 H13        187.0550   173.5690   161.3510 hc         1 KW2       0.048700
     43 H14        187.9380   176.3440   158.9870 hc         1 KW2       0.032867
     44 H15        189.6670   176.5490   158.7430 hc         1 KW2       0.032867
     45 H16        188.6630   175.8420   157.4680 hc         1 KW2       0.032867
     46 H17        190.7730   173.0290   158.6560 hc         1 KW2       0.032867
     47 H18        190.1610   173.9050   157.2620 hc         1 KW2       0.032867
     48 H19        191.1900   174.7120   158.4530 hc         1 KW2       0.032867
     49 H20        190.1970   167.6880   160.1780 h4         1 KW2       0.228000
     50 H21        192.6390   171.6680   162.2980 ha         1 KW2       0.112000
     51 H22        196.1090   170.8090   159.8480 ha         1 KW2       0.108000
     52 H23        194.9270   168.8520   158.8440 ha         1 KW2       0.114000
     53 H24        191.6040   166.5590   158.4620 h2         1 KW2       0.086700
     54 H25        194.0640   165.3480   155.4890 h1         1 KW2       0.067700
     55 H26        195.0820   165.2410   157.7660 h1         1 KW2       0.058200
     56 H27        195.0700   166.9140   157.1870 h1         1 KW2       0.058200
     57 H28        191.6320   166.6170   155.6500 h1         1 KW2       0.075700
     58 H29        193.4070   168.6250   157.0930 h1         1 KW2       0.058700
     59 H30        187.4520   171.2630   157.4750 hc         1 KW2       0.034033
     60 H31        189.2050   171.4770   157.5790 hc         1 KW2       0.034033
     61 H32        188.4360   170.0810   158.3490 hc         1 KW2       0.034033
     62 H33        191.2850   169.4560   157.6410 ho         1 KW2       0.524000
     63 H34        192.6970   168.4320   154.6460 ho         1 KW2       0.464000
     64 H35        193.1300   163.8780   157.0710 ho         1 KW2       0.514000
@<TRIPOS>BOND
     1     1    17 1   
     2     1    18 1   
     3     1    22 1   
     4     2    19 ar  
     5     2    20 ar  
     6     2    31 1   
     7     3     6 1   
     8     3    11 1   
     9     3    32 1   
    10     4     6 1   
    11     4    16 1   
    12     4    18 2   
    13     5    22 1   
    14     5    24 1   
    15     6    33 1   
    16     6    34 1   
    17     7     8 1   
    18     7    12 1   
    19     7    13 1   
    20     7    35 1   
    21     8     9 1   
    22     8    14 1   
    23     8    15 1   
    24     9    10 1   
    25     9    13 1   
    26     9    36 1   
    27    10    11 1   
    28    10    27 1   
    29    10    37 1   
    30    11    12 1   
    31    11    38 1   
    32    12    39 1   
    33    12    40 1   
    34    13    41 1   
    35    13    42 1   
    36    14    43 1   
    37    14    44 1   
    38    14    45 1   
    39    15    46 1   
    40    15    47 1   
    41    15    48 1   
    42    16    17 ar  
    43    16    19 ar  
    44    17    21 ar  
    45    18    49 1   
    46    19    50 1   
    47    20    21 ar  
    48    20    51 1   
    49    21    52 1   
    50    22    26 1   
    51    22    53 1   
    52    23    24 1   
    53    23    25 1   
    54    23    30 1   
    55    23    54 1   
    56    24    55 1   
    57    24    56 1   
    58    25    26 1   
    59    25    29 1   
    60    25    57 1   
    61    26    28 1   
    62    26    58 1   
    63    27    59 1   
    64    27    60 1   
    65    27    61 1   
    66    28    62 1   
    67    29    63 1   
    68    30    64 1   
@<TRIPOS>SUBSTRUCTURE
     1 KW2         1 TEMP              0 ****  ****    0 ROOT
