@<TRIPOS>MOLECULE
KW2
   64    68     1     0     0
SMALL
abcg2


@<TRIPOS>ATOM
      1 N1         192.2920   168.3840   159.7060 na         1 KW2      -0.110700
      2 C1F        195.1220   170.3930   161.9230 ca         1 KW2      -0.138000
      3 N          189.2370   170.7630   161.4610 n7         1 KW2      -0.868400
      4 C          191.4430   169.7340   161.2970 cc         1 KW2      -0.150400
      5 O          193.1470   166.5420   158.6010 os         1 KW2      -0.443000
      6 C1         190.4780   170.4820   162.1610 c3         1 KW2       0.240000
      7 C12        189.0510   174.3130   160.2140 cy         1 KW2      -0.064700
      8 C13        188.8580   174.0680   158.6950 cy         1 KW2      -0.056000
      9 C14        187.6560   173.1760   159.1240 cy         1 KW2      -0.062700
     10 C15        188.0360   171.7680   159.5800 c6         1 KW2      -0.042700
     11 C16        189.3470   171.7620   160.4050 c6         1 KW2       0.169500
     12 C17        189.8010   173.1690   160.8890 c6         1 KW2      -0.093400
     13 C18        187.5440   174.0530   160.3880 cy         1 KW2      -0.097400
     14 C19        188.3640   175.3260   157.9780 c3         1 KW2      -0.075100
     15 C1A        190.0120   173.5130   157.8710 c3         1 KW2      -0.075100
     16 C1B        192.8730   169.8110   161.3400 ca         1 KW2      -0.095800
     17 C1C        193.3740   168.9620   160.3280 ca         1 KW2      -0.045200
     18 C1D        191.1440   168.8650   160.2930 cd         1 KW2      -0.119100
     19 C1E        193.7660   170.5280   162.1440 ca         1 KW2      -0.068000
     20 C1G        195.6040   169.5470   160.9130 ca         1 KW2      -0.100000
     21 C1H        194.7450   168.8210   160.1080 ca         1 KW2      -0.119000
     22 C1I        192.2950   167.6460   158.4690 c6         1 KW2       0.295300
     23 C1K        193.1870   166.3420   156.1670 c6         1 KW2       0.137300
     24 C1L        193.9560   166.2480   157.4750 c6         1 KW2       0.123600
     25 C1M        192.5850   167.7450   155.9860 c6         1 KW2       0.173300
     26 C1N        192.6740   168.5440   157.2830 c6         1 KW2       0.086300
     27 C1O        188.0890   170.7520   158.4460 c3         1 KW2      -0.082100
     28 O1         191.7920   169.6330   157.1880 oh         1 KW2      -0.718000
     29 O12        193.2510   168.3960   154.9320 oh         1 KW2      -0.657000
     30 O13        192.1220   165.4200   156.1260 oh         1 KW2      -0.712000
     31 H1         195.8260   170.9430   162.5350 ha         1 KW2       0.110000
     32 H2         188.5440   171.0660   162.1350 hn         1 KW2       0.408000
     33 H4         190.9790   171.3850   162.5430 h1         1 KW2       0.035200
     34 H5         190.2280   169.8920   163.0480 h1         1 KW2       0.035200
     35 H6         189.4520   175.2840   160.5190 hc         1 KW2       0.062700
     36 H7         186.7990   173.1430   158.4430 hc         1 KW2       0.063700
     37 H8         187.2260   171.4470   160.2480 hc         1 KW2       0.048700
     38 H9         190.1310   171.3850   159.7440 h1         1 KW2       0.059700
     39 H10        189.6430   173.2550   161.9700 hc         1 KW2       0.039700
     40 H11        190.8780   173.2770   160.7330 hc         1 KW2       0.039700
     41 H12        186.9210   174.9380   160.2610 hc         1 KW2       0.048700
     42 H13        187.2370   173.5480   161.3080 hc         1 KW2       0.048700
     43 H14        187.5240   175.8120   158.4750 hc         1 KW2       0.032867
     44 H15        189.1660   176.0630   157.8970 hc         1 KW2       0.032867
     45 H16        188.0410   175.0820   156.9630 hc         1 KW2       0.032867
     46 H17        190.5040   172.6430   158.3010 hc         1 KW2       0.032867
     47 H18        189.6690   173.2320   156.8730 hc         1 KW2       0.032867
     48 H19        190.7780   174.2820   157.7430 hc         1 KW2       0.032867
     49 H20        190.1790   168.5490   159.9270 h4         1 KW2       0.228000
     50 H21        193.4000   171.1800   162.9270 ha         1 KW2       0.112000
     51 H22        196.6710   169.4540   160.7600 ha         1 KW2       0.108000
     52 H23        195.1440   168.1710   159.3420 ha         1 KW2       0.114000
     53 H24        191.2600   167.3080   158.3220 h2         1 KW2       0.086700
     54 H25        193.9050   166.1650   155.3530 h1         1 KW2       0.067700
     55 H26        194.3330   165.2340   157.6250 h1         1 KW2       0.058200
     56 H27        194.8330   166.9060   157.4270 h1         1 KW2       0.058200
     57 H28        191.5180   167.6120   155.7560 h1         1 KW2       0.075700
     58 H29        193.7100   168.8910   157.4060 h1         1 KW2       0.058700
     59 H30        187.1310   170.6990   157.9250 hc         1 KW2       0.034033
     60 H31        188.8540   170.9940   157.7070 hc         1 KW2       0.034033
     61 H32        188.3080   169.7550   158.8320 hc         1 KW2       0.034033
     62 H33        192.0760   170.3280   157.7900 ho         1 KW2       0.524000
     63 H34        192.8530   169.2660   154.8160 ho         1 KW2       0.464000
     64 H35        192.4760   164.5330   156.2500 ho         1 KW2       0.514000
@<TRIPOS>BOND
     1     1    17 1   
     2     1    18 1   
     3     1    22 1   
     4     2    19 ar  
     5     2    20 ar  
     6     2    31 1   
     7     3     6 1   
     8     3    11 1   
     9     3    32 1   
    10     4     6 1   
    11     4    16 1   
    12     4    18 2   
    13     5    22 1   
    14     5    24 1   
    15     6    33 1   
    16     6    34 1   
    17     7     8 1   
    18     7    12 1   
    19     7    13 1   
    20     7    35 1   
    21     8     9 1   
    22     8    14 1   
    23     8    15 1   
    24     9    10 1   
    25     9    13 1   
    26     9    36 1   
    27    10    11 1   
    28    10    27 1   
    29    10    37 1   
    30    11    12 1   
    31    11    38 1   
    32    12    39 1   
    33    12    40 1   
    34    13    41 1   
    35    13    42 1   
    36    14    43 1   
    37    14    44 1   
    38    14    45 1   
    39    15    46 1   
    40    15    47 1   
    41    15    48 1   
    42    16    17 ar  
    43    16    19 ar  
    44    17    21 ar  
    45    18    49 1   
    46    19    50 1   
    47    20    21 ar  
    48    20    51 1   
    49    21    52 1   
    50    22    26 1   
    51    22    53 1   
    52    23    24 1   
    53    23    25 1   
    54    23    30 1   
    55    23    54 1   
    56    24    55 1   
    57    24    56 1   
    58    25    26 1   
    59    25    29 1   
    60    25    57 1   
    61    26    28 1   
    62    26    58 1   
    63    27    59 1   
    64    27    60 1   
    65    27    61 1   
    66    28    62 1   
    67    29    63 1   
    68    30    64 1   
@<TRIPOS>SUBSTRUCTURE
     1 KW2         1 TEMP              0 ****  ****    0 ROOT
