@<TRIPOS>MOLECULE
KW3
   77    79     1     0     0
SMALL
abcg2


@<TRIPOS>ATOM
      1 C30        153.3050   134.1750   139.1370 c          1 KW3       0.725000
      2 C13        142.8220   132.0980   143.3060 ca         1 KW3      -0.188000
      3 C12        142.2570   130.9440   142.7780 ca         1 KW3      -0.096000
      4 C25        137.5940   136.8690   139.1570 ca         1 KW3      -0.088000
      5 C10        143.4170   131.3280   140.7190 ca         1 KW3      -0.082000
      6 C7         145.3290   132.7980   139.0460 c3         1 KW3      -0.136400
      7 C4         149.2060   130.7630   139.8430 c3         1 KW3       0.227300
      8 C3         149.3570   131.3450   138.4460 c3         1 KW3       0.145600
      9 C2         149.0360   133.3190   137.1870 c3         1 KW3       0.150600
     10 C1         148.4380   132.7480   135.9120 c3         1 KW3      -0.126100
     11 O1         148.7170   132.5910   138.3520 os         1 KW3      -0.433000
     12 C5         147.8000   130.2870   140.1720 c3         1 KW3       0.141600
     13 O2         146.8460   131.3480   140.1200 os         1 KW3      -0.402100
     14 C6         146.1110   131.5100   139.0280 c          1 KW3       0.612100
     15 O3         146.0770   130.7240   138.1130 o          1 KW3      -0.542000
     16 C8         144.9390   133.3470   140.4110 c3         1 KW3      -0.017100
     17 C9         144.0060   132.4820   141.2190 ca         1 KW3      -0.069300
     18 C11        142.5480   130.5560   141.4830 ca         1 KW3      -0.144000
     19 C14        143.6880   132.8630   142.5330 ca         1 KW3       0.131100
     20 O4         144.2860   133.9960   142.9710 os         1 KW3      -0.325100
     21 C15        143.7990   134.6330   144.1340 c3         1 KW3       0.206900
     22 C16        142.3950   135.1550   143.9660 ca         1 KW3      -0.099300
     23 C17        141.4750   135.0470   145.0010 ca         1 KW3      -0.111000
     24 C18        140.1850   135.5400   144.8470 ca         1 KW3      -0.104000
     25 C19        139.7970   136.1360   143.6580 ca         1 KW3      -0.142000
     26 C20        140.7220   136.2380   142.6250 ca         1 KW3       0.098100
     27 O5         140.3950   136.8690   141.4540 os         1 KW3      -0.255200
     28 C21        139.3560   136.3850   140.7110 ca         1 KW3       0.132100
     29 C22        139.0530   135.0290   140.6450 ca         1 KW3      -0.147000
     30 C23        138.0120   134.6070   139.8290 ca         1 KW3      -0.088000
     31 C24        137.2780   135.5190   139.0830 ca         1 KW3      -0.142000
     32 C26        138.6270   137.3080   139.9720 ca         1 KW3      -0.147000
     33 C27        142.0110   135.7550   142.7700 ca         1 KW3      -0.088000
     34 O6         149.6470   131.6940   140.8110 os         1 KW3      -0.568400
     35 P1         150.6690   131.2240   142.0200 p5         1 KW3       1.394800
     36 O7         150.5730   132.3050   143.0490 o          1 KW3      -0.831500
     37 O8         150.4290   129.7810   142.3430 o          1 KW3      -0.831500
     38 O9         152.1360   131.2570   141.2900 os         1 KW3      -0.631400
     39 C28        152.7820   132.4850   140.9610 c3         1 KW3       0.237600
     40 C29        152.6120   132.8360   139.4930 c3         1 KW3      -0.006500
     41 N1         153.1230   131.7540   138.6660 n8         1 KW3      -0.994200
     42 O10        153.7650   134.2780   137.9830 o          1 KW3      -0.750000
     43 O11        153.3000   135.0550   140.0200 o          1 KW3      -0.750000
     44 H3         137.0290   137.5920   138.5820 ha         1 KW3       0.109500
     45 H4         143.6190   131.0130   139.7030 ha         1 KW3       0.122000
     46 H5         145.9660   133.5380   138.5500 hc         1 KW3       0.064200
     47 H6         144.4600   132.6770   138.3990 hc         1 KW3       0.064200
     48 H7         149.8190   129.8530   139.8490 h1         1 KW3       0.048700
     49 H8         148.9550   130.6170   137.7300 h1         1 KW3       0.019700
     50 H9         150.4270   131.4490   138.2200 h1         1 KW3       0.019700
     51 H10        150.1270   133.4030   137.0810 h1         1 KW3       0.050700
     52 H11        148.6520   134.3280   137.3500 h1         1 KW3       0.050700
     53 H12        148.6700   133.4060   135.0740 hc         1 KW3       0.026367
     54 H13        148.8380   131.7620   135.6730 hc         1 KW3       0.026367
     55 H14        147.3530   132.6680   135.9860 hc         1 KW3       0.026367
     56 H15        147.7810   129.9100   141.1940 h1         1 KW3       0.059700
     57 H16        147.5180   129.4730   139.5040 h1         1 KW3       0.059700
     58 H17        145.8420   133.5610   140.9860 hc         1 KW3       0.072200
     59 H18        144.4670   134.3210   140.2490 hc         1 KW3       0.072200
     60 H19        142.1060   129.6630   141.0620 ha         1 KW3       0.104000
     61 H20        143.8620   133.9800   145.0100 h1         1 KW3       0.066700
     62 H21        144.4880   135.4600   144.3090 h1         1 KW3       0.066700
     63 H22        141.7620   134.5680   145.9290 ha         1 KW3       0.114000
     64 H23        139.4740   135.4540   145.6580 ha         1 KW3       0.107000
     65 H24        138.7920   136.5190   143.5370 ha         1 KW3       0.118000
     66 H25        139.6230   134.3030   141.2110 ha         1 KW3       0.130500
     67 H26        137.7800   133.5510   139.7760 ha         1 KW3       0.109500
     68 H27        136.4690   135.1800   138.4500 ha         1 KW3       0.108000
     69 H28        138.8720   138.3610   140.0350 ha         1 KW3       0.130500
     70 H29        142.7070   135.8470   141.9440 ha         1 KW3       0.149000
     71 H31        153.8460   132.3490   141.1800 h1         1 KW3       0.040700
     72 H32        152.4170   133.2990   141.5870 h1         1 KW3       0.040700
     73 H33        151.5370   133.0200   139.3250 h1         1 KW3       0.011700
     74 H34        152.5000   130.9590   138.7110 hn         1 KW3       0.371500
     75 H35        153.1410   132.0650   137.7040 hn         1 KW3       0.371500
     76 H1         142.5770   132.3820   144.3210 ha         1 KW3       0.107000
     77 H2         141.5840   130.3570   143.3890 ha         1 KW3       0.096000
@<TRIPOS>BOND
     1     1    40 1   
     2     1    42 1   
     3     1    43 1   
     4     2     3 ar  
     5     2    19 ar  
     6     2    76 1   
     7     3    18 ar  
     8     3    77 1   
     9     4    31 ar  
    10     4    32 ar  
    11     4    44 1   
    12     5    17 ar  
    13     5    18 ar  
    14     5    45 1   
    15     6    14 1   
    16     6    16 1   
    17     6    46 1   
    18     6    47 1   
    19     7     8 1   
    20     7    12 1   
    21     7    34 1   
    22     7    48 1   
    23     8    11 1   
    24     8    49 1   
    25     8    50 1   
    26     9    10 1   
    27     9    11 1   
    28     9    51 1   
    29     9    52 1   
    30    10    53 1   
    31    10    54 1   
    32    10    55 1   
    33    12    13 1   
    34    12    56 1   
    35    12    57 1   
    36    13    14 1   
    37    14    15 2   
    38    16    17 1   
    39    16    58 1   
    40    16    59 1   
    41    17    19 ar  
    42    18    60 1   
    43    19    20 1   
    44    20    21 1   
    45    21    22 1   
    46    21    61 1   
    47    21    62 1   
    48    22    23 ar  
    49    22    33 ar  
    50    23    24 ar  
    51    23    63 1   
    52    24    25 ar  
    53    24    64 1   
    54    25    26 ar  
    55    25    65 1   
    56    26    27 1   
    57    26    33 ar  
    58    27    28 1   
    59    28    29 ar  
    60    28    32 ar  
    61    29    30 ar  
    62    29    66 1   
    63    30    31 ar  
    64    30    67 1   
    65    31    68 1   
    66    32    69 1   
    67    33    70 1   
    68    34    35 1   
    69    35    36 1   
    70    35    37 1   
    71    35    38 1   
    72    38    39 1   
    73    39    40 1   
    74    39    71 1   
    75    39    72 1   
    76    40    41 1   
    77    40    73 1   
    78    41    74 1   
    79    41    75 1   
@<TRIPOS>SUBSTRUCTURE
     1 KW3         1 TEMP              0 ****  ****    0 ROOT
