@<TRIPOS>MOLECULE
KW3
   77    79     1     0     0
SMALL
No Charge or Current Charge


@<TRIPOS>ATOM
      1 C30        152.1570   136.0530   139.8800 c          1 KW3       0.725000
      2 C13        142.2290   130.8970   141.9590 ca         1 KW3      -0.188000
      3 C12        141.0970   130.2010   141.5040 ca         1 KW3      -0.096000
      4 C25        139.0430   138.9400   141.2030 ca         1 KW3      -0.088000
      5 C10        141.7570   130.6280   139.2040 ca         1 KW3      -0.082000
      6 C7         144.8290   130.8770   138.0270 c3         1 KW3      -0.136400
      7 C4         149.1630   131.5700   140.1000 c3         1 KW3       0.227300
      8 C3         149.9500   131.5070   138.7540 c3         1 KW3       0.145600
      9 C2         149.7840   132.0290   136.3640 c3         1 KW3       0.150600
     10 C1         150.0290   130.5970   135.8430 c3         1 KW3      -0.126100
     11 O1         149.1380   131.9740   137.6520 os         1 KW3      -0.433000
     12 C5         147.9030   130.6500   140.1740 c3         1 KW3       0.141600
     13 O2         146.9100   131.0660   139.2130 os         1 KW3      -0.402100
     14 C6         145.7710   130.3170   139.0970 c          1 KW3       0.612100
     15 O3         145.5290   129.3170   139.7620 o          1 KW3      -0.542000
     16 C8         143.8510   131.9240   138.6110 c3         1 KW3      -0.017100
     17 C9         142.8960   131.3310   139.6470 ca         1 KW3      -0.069300
     18 C11        140.8610   130.0670   140.1280 ca         1 KW3      -0.144000
     19 C14        143.1320   131.4720   141.0360 ca         1 KW3       0.131100
     20 O4         144.2600   132.1620   141.4470 os         1 KW3      -0.325100
     21 C15        144.4860   132.5710   142.8110 c3         1 KW3       0.206900
     22 C16        143.4320   133.5960   143.2290 ca         1 KW3      -0.099300
     23 C17        142.7660   133.4700   144.4650 ca         1 KW3      -0.111000
     24 C18        141.7940   134.4110   144.8490 ca         1 KW3      -0.104000
     25 C19        141.4780   135.4820   143.9970 ca         1 KW3      -0.142000
     26 C20        142.1340   135.6110   142.7580 ca         1 KW3       0.098100
     27 O5         141.8480   136.6580   141.9110 os         1 KW3      -0.255200
     28 C21        140.5640   137.0950   141.6740 ca         1 KW3       0.132100
     29 C22        139.4850   136.1900   141.6040 ca         1 KW3      -0.147000
     30 C23        138.1870   136.6630   141.3450 ca         1 KW3      -0.088000
     31 C24        137.9670   138.0380   141.1470 ca         1 KW3      -0.142000
     32 C26        140.3420   138.4660   141.4620 ca         1 KW3      -0.147000
     33 C27        143.1160   134.6800   142.3840 ca         1 KW3      -0.088000
     34 O6         148.8310   132.9420   140.4060 os         1 KW3      -0.568400
     35 P1         148.7140   133.4500   141.9320 p5         1 KW3       1.394800
     36 O7         147.9360   134.7190   142.0340 o          1 KW3      -0.831500
     37 O8         148.1530   132.4000   142.8290 o          1 KW3      -0.831500
     38 O9         150.2760   133.6950   142.2620 os         1 KW3      -0.631400
     39 C28        150.9490   134.8990   141.8360 c3         1 KW3       0.237600
     40 C29        151.6590   134.6710   140.4670 c3         1 KW3      -0.006500
     41 N1         152.6960   133.5630   140.5450 n8         1 KW3      -0.994200
     42 O10        152.1920   136.1820   138.6620 o          1 KW3      -0.750000
     43 O11        152.4900   136.9480   140.6480 o          1 KW3      -0.750000
     44 H3         138.8730   140.0030   141.0450 ha         1 KW3       0.109500
     45 H4         141.5670   130.5150   138.1380 ha         1 KW3       0.122000
     46 H5         145.4260   131.4000   137.2710 hc         1 KW3       0.064200
     47 H6         144.2580   130.0590   137.5720 hc         1 KW3       0.064200
     48 H7         149.8570   131.1940   140.8640 h1         1 KW3       0.048700
     49 H8         150.2630   130.4680   138.5920 h1         1 KW3       0.019700
     50 H9         150.8580   132.1170   138.8420 h1         1 KW3       0.019700
     51 H10        150.7340   132.5780   136.4200 h1         1 KW3       0.050700
     52 H11        149.1360   132.5550   135.6500 h1         1 KW3       0.050700
     53 H12        150.3660   130.6320   134.8000 hc         1 KW3       0.026367
     54 H13        150.8040   130.0860   136.4260 hc         1 KW3       0.026367
     55 H14        149.1070   130.0060   135.8830 hc         1 KW3       0.026367
     56 H15        147.4840   130.6600   141.1860 h1         1 KW3       0.059700
     57 H16        148.2210   129.6200   139.9660 h1         1 KW3       0.059700
     58 H17        144.4240   132.7620   139.0260 hc         1 KW3       0.072200
     59 H18        143.2700   132.3540   137.7850 hc         1 KW3       0.072200
     60 H19        139.9860   129.5270   139.7770 ha         1 KW3       0.104000
     61 H20        144.4760   131.7050   143.4850 h1         1 KW3       0.066700
     62 H21        145.4750   133.0370   142.8980 h1         1 KW3       0.066700
     63 H22        143.0020   132.6430   145.1320 ha         1 KW3       0.114000
     64 H23        141.2870   134.3080   145.8060 ha         1 KW3       0.107000
     65 H24        140.7290   136.2100   144.3010 ha         1 KW3       0.118000
     66 H25        139.6510   135.1260   141.7460 ha         1 KW3       0.130500
     67 H26        137.3530   135.9660   141.2950 ha         1 KW3       0.109500
     68 H27        136.9620   138.4030   140.9460 ha         1 KW3       0.108000
     69 H28        141.1770   139.1610   141.5040 ha         1 KW3       0.130500
     70 H29        143.6240   134.7950   141.4290 ha         1 KW3       0.149000
     71 H31        151.6950   135.1960   142.5860 h1         1 KW3       0.040700
     72 H32        150.2420   135.7340   141.7360 h1         1 KW3       0.040700
     73 H33        150.8920   134.3180   139.7660 h1         1 KW3       0.011700
     74 H34        152.2490   132.7360   140.9540 hn         1 KW3       0.371500
     75 H35        152.9540   133.2750   139.5940 hn         1 KW3       0.371500
     76 H1         142.3890   130.9750   143.0290 ha         1 KW3       0.107000
     77 H2         140.4040   129.7620   142.2190 ha         1 KW3       0.096000
@<TRIPOS>BOND
     1     1    40 1   
     2     1    42 1   
     3     1    43 1   
     4     2     3 ar  
     5     2    19 ar  
     6     2    76 1   
     7     3    18 ar  
     8     3    77 1   
     9     4    31 ar  
    10     4    32 ar  
    11     4    44 1   
    12     5    17 ar  
    13     5    18 ar  
    14     5    45 1   
    15     6    14 1   
    16     6    16 1   
    17     6    46 1   
    18     6    47 1   
    19     7     8 1   
    20     7    12 1   
    21     7    34 1   
    22     7    48 1   
    23     8    11 1   
    24     8    49 1   
    25     8    50 1   
    26     9    10 1   
    27     9    11 1   
    28     9    51 1   
    29     9    52 1   
    30    10    53 1   
    31    10    54 1   
    32    10    55 1   
    33    12    13 1   
    34    12    56 1   
    35    12    57 1   
    36    13    14 1   
    37    14    15 2   
    38    16    17 1   
    39    16    58 1   
    40    16    59 1   
    41    17    19 ar  
    42    18    60 1   
    43    19    20 1   
    44    20    21 1   
    45    21    22 1   
    46    21    61 1   
    47    21    62 1   
    48    22    23 ar  
    49    22    33 ar  
    50    23    24 ar  
    51    23    63 1   
    52    24    25 ar  
    53    24    64 1   
    54    25    26 ar  
    55    25    65 1   
    56    26    27 1   
    57    26    33 ar  
    58    27    28 1   
    59    28    29 ar  
    60    28    32 ar  
    61    29    30 ar  
    62    29    66 1   
    63    30    31 ar  
    64    30    67 1   
    65    31    68 1   
    66    32    69 1   
    67    33    70 1   
    68    34    35 1   
    69    35    36 1   
    70    35    37 1   
    71    35    38 1   
    72    38    39 1   
    73    39    40 1   
    74    39    71 1   
    75    39    72 1   
    76    40    41 1   
    77    40    73 1   
    78    41    74 1   
    79    41    75 1   
@<TRIPOS>SUBSTRUCTURE
     1 KW3         1 TEMP              0 ****  ****    0 ROOT
