@<TRIPOS>MOLECULE
KW5
   49    51     1     0     0
SMALL
abcg2


@<TRIPOS>ATOM
      1 C10        -27.5400    43.8610    10.4410 c6         1 KW5      -0.082400
      2 C13        -26.2220    44.2230     9.7670 c6         1 KW5       0.226800
      3 C17        -25.5380    45.5420    11.7560 c6         1 KW5       0.228800
      4 C24        -23.3510    45.9470     9.0480 ca         1 KW5      -0.072000
      5 C26        -22.6410    46.7580     8.1620 ca         1 KW5      -0.025000
      6 C01        -27.2200    46.3210    13.4430 c3         1 KW5      -0.087100
      7 C05        -26.8420    45.2030    12.4770 c6         1 KW5      -0.071700
      8 C07        -27.9500    44.9300    11.4550 c6         1 KW5      -0.070400
      9 N16        -25.2030    44.4790    10.7980 n3         1 KW5      -0.814500
     10 S20        -23.7340    43.8220    10.7250 sy         1 KW5       1.221600
     11 O21        -23.8550    42.5230    10.1030 o          1 KW5      -0.534500
     12 O22        -23.1350    43.9200    12.0350 o          1 KW5      -0.534500
     13 C23        -22.7470    44.8310     9.6170 ca         1 KW5      -0.218500
     14 C29        -24.4040    48.4720     7.7800 c          1 KW5       0.593100
     15 O30        -25.2220    48.0880     8.5990 o          1 KW5      -0.574100
     16 C31        -24.6520    49.6980     6.8950 c3         1 KW5       0.036000
     17 N34        -25.9150    50.3120     7.1900 n          1 KW5      -0.381400
     18 C35        -26.1020    51.2820     8.1400 c          1 KW5       0.562000
     19 O36        -25.2340    51.8110     8.8030 o          1 KW5      -0.499000
     20 C37        -27.5950    51.5540     8.1820 c5         1 KW5       0.019000
     21 N40        -28.1060    50.6160     7.2040 ns         1 KW5      -0.520900
     22 C42        -27.1370    49.8740     6.6310 c          1 KW5       0.624000
     23 O43        -27.2340    48.9980     5.7920 o          1 KW5      -0.540000
     24 C44        -21.3180    46.4350     7.8560 ca         1 KW5      -0.122000
     25 C46        -20.7160    45.3280     8.4280 ca         1 KW5      -0.074000
     26 C48        -21.4230    44.5200     9.3090 ca         1 KW5       0.055100
     27 BR1        -20.5090    43.0160    10.0490 br         1 KW5      -0.063100
     28 H1         -28.3070    43.7460     9.6720 hc         1 KW5       0.052200
     29 H2         -27.4250    42.8950    10.9420 hc         1 KW5       0.052200
     30 H3         -25.8750    43.4230     9.1200 h1         1 KW5       0.058200
     31 H4         -26.3460    45.1270     9.1620 h1         1 KW5       0.058200
     32 H5         -24.7200    45.6480    12.4630 h1         1 KW5       0.061200
     33 H6         -25.6500    46.4880    11.2140 h1         1 KW5       0.061200
     34 H7         -24.3690    46.1920     9.2840 ha         1 KW5       0.155000
     35 H8         -26.4320    46.4920    14.1800 hc         1 KW5       0.036700
     36 H9         -27.3900    47.2570    12.9050 hc         1 KW5       0.036700
     37 H10        -28.1380    46.0720    13.9800 hc         1 KW5       0.036700
     38 H11        -26.6660    44.2830    13.0470 hc         1 KW5       0.060700
     39 H12        -28.1760    45.8630    10.9250 hc         1 KW5       0.042200
     40 H13        -28.8640    44.6280    11.9720 hc         1 KW5       0.042200
     41 H14        -22.6130    48.3290     6.8510 hn         1 KW5       0.154000
     42 H15        -24.6350    49.3970     5.8470 h1         1 KW5       0.089200
     43 H16        -23.8600    50.4300     7.0550 h1         1 KW5       0.089200
     44 H17        -27.7950    52.5940     7.9160 h1         1 KW5       0.085700
     45 H18        -20.7550    47.0550     7.1700 ha         1 KW5       0.117000
     46 H19        -19.6890    45.0910     8.1860 ha         1 KW5       0.134000
     47 H20        -27.9770    51.3650     9.1880 h1         1 KW5       0.085700
     48 H21        -29.0800    50.4910     6.9830 hn         1 KW5       0.358500
     49 N27        -23.2000    47.8860     7.5450 ns         1 KW5      -0.147000
@<TRIPOS>BOND
     1     1     2 1   
     2     1     8 1   
     3     1    28 1   
     4     1    29 1   
     5     2     9 1   
     6     2    30 1   
     7     2    31 1   
     8     3     7 1   
     9     3     9 1   
    10     3    32 1   
    11     3    33 1   
    12     4     5 ar  
    13     4    13 ar  
    14     4    34 1   
    15     5    24 ar  
    16     5    49 1   
    17     6     7 1   
    18     6    35 1   
    19     6    36 1   
    20     6    37 1   
    21     7     8 1   
    22     7    38 1   
    23     8    39 1   
    24     8    40 1   
    25     9    10 1   
    26    10    11 2   
    27    10    12 2   
    28    10    13 1   
    29    13    26 ar  
    30    14    15 2   
    31    14    16 1   
    32    14    49 1   
    33    16    17 1   
    34    16    42 1   
    35    16    43 1   
    36    17    18 1   
    37    17    22 1   
    38    18    19 2   
    39    18    20 1   
    40    20    21 1   
    41    20    44 1   
    42    20    47 1   
    43    21    22 1   
    44    21    48 1   
    45    22    23 2   
    46    24    25 ar  
    47    24    45 1   
    48    25    26 ar  
    49    25    46 1   
    50    26    27 1   
    51    41    49 1   
@<TRIPOS>SUBSTRUCTURE
     1 KW5         1 TEMP              0 ****  ****    0 ROOT
