@<TRIPOS>MOLECULE
KW5
   49    51     1     0     0
SMALL
No Charge or Current Charge


@<TRIPOS>ATOM
      1 C10        -27.1020    43.1690    10.4690 c6         1 KW5      -0.082400
      2 C13        -26.3140    44.4950    10.5790 c6         1 KW5       0.226800
      3 C17        -25.9910    44.1570    12.9980 c6         1 KW5       0.228800
      4 C24        -23.8430    46.9990     9.2910 ca         1 KW5      -0.072000
      5 C26        -23.3520    47.1030     7.9710 ca         1 KW5      -0.025000
      6 C01        -27.4430    42.5010    14.3210 c3         1 KW5      -0.087100
      7 C05        -26.7700    42.8140    12.9580 c6         1 KW5      -0.071700
      8 C07        -27.8010    42.8220    11.8020 c6         1 KW5      -0.070400
      9 N16        -25.3360    44.4490    11.6980 n3         1 KW5      -0.814500
     10 S20        -24.2610    45.7680    11.7600 sy         1 KW5       1.221600
     11 O21        -23.1740    45.3550    12.6560 o          1 KW5      -0.534500
     12 O22        -25.0720    46.9600    12.0370 o          1 KW5      -0.534500
     13 C23        -23.5950    45.8440    10.0730 ca         1 KW5      -0.218500
     14 C29        -24.3300    49.3850     7.2890 c          1 KW5       0.593100
     15 O30        -25.0370    49.6140     8.2670 o          1 KW5      -0.574100
     16 C31        -24.2220    50.3630     6.1020 c3         1 KW5       0.036000
     17 N34        -25.0370    51.6040     6.2350 n          1 KW5      -0.381400
     18 C35        -24.5700    52.7360     6.8800 c          1 KW5       0.562000
     19 O36        -23.4650    52.8680     7.3890 o          1 KW5      -0.499000
     20 C37        -25.7560    53.7380     6.7900 c5         1 KW5       0.019000
     21 N40        -26.7770    52.9430     6.0620 ns         1 KW5      -0.520900
     22 C42        -26.3200    51.6980     5.7590 c          1 KW5       0.624000
     23 O43        -26.9480    50.8340     5.1720 o          1 KW5      -0.540000
     24 C44        -22.6010    46.0400     7.4390 ca         1 KW5      -0.122000
     25 C46        -22.3540    44.8890     8.2020 ca         1 KW5      -0.074000
     26 C48        -22.8460    44.7800     9.5130 ca         1 KW5       0.055100
     27 Br1        -22.4740    43.1430    10.4540 br         1 KW5      -0.063100
     28 H1         -27.8440    43.2430     9.6630 hc         1 KW5       0.052200
     29 H2         -26.4140    42.3600    10.1890 hc         1 KW5       0.052200
     30 H3         -25.8130    44.6630     9.6150 h1         1 KW5       0.058200
     31 H4         -27.0230    45.3250    10.7210 h1         1 KW5       0.058200
     32 H5         -25.2400    44.0920    13.8010 h1         1 KW5       0.061200
     33 H6         -26.6820    44.9680    13.2720 h1         1 KW5       0.061200
     34 H7         -24.4150    47.8130     9.7280 ha         1 KW5       0.155000
     35 H8         -26.7020    42.4600    15.1280 hc         1 KW5       0.036700
     36 H9         -28.1830    43.2660    14.5860 hc         1 KW5       0.036700
     37 H10        -27.9580    41.5330    14.2950 hc         1 KW5       0.036700
     38 H11        -26.0470    42.0060    12.7760 hc         1 KW5       0.060700
     39 H12        -28.5920    43.5580    12.0080 hc         1 KW5       0.042200
     40 H13        -28.2930    41.8430    11.7220 hc         1 KW5       0.042200
     41 H14        -23.0520    48.1950     6.2620 hn         1 KW5       0.154000
     42 H15        -24.5210    49.8200     5.1970 h1         1 KW5       0.089200
     43 H16        -23.1640    50.6290     5.9870 h1         1 KW5       0.089200
     44 H17        -25.4320    54.6300     6.2390 h1         1 KW5       0.085700
     45 H18        -22.2100    46.1000     6.4260 ha         1 KW5       0.117000
     46 H19        -21.7800    44.0710     7.7720 ha         1 KW5       0.134000
     47 H20        -26.0700    54.0140     7.8050 h1         1 KW5       0.085700
     48 H21        -27.7180    53.2200     5.7990 hn         1 KW5       0.358500
     49 N27        -23.5620    48.2360     7.1350 ns         1 KW5      -0.147000
@<TRIPOS>BOND
     1     1     2 1   
     2     1     8 1   
     3     1    28 1   
     4     1    29 1   
     5     2     9 1   
     6     2    30 1   
     7     2    31 1   
     8     3     7 1   
     9     3     9 1   
    10     3    32 1   
    11     3    33 1   
    12     4     5 ar  
    13     4    13 ar  
    14     4    34 1   
    15     5    24 ar  
    16     5    49 1   
    17     6     7 1   
    18     6    35 1   
    19     6    36 1   
    20     6    37 1   
    21     7     8 1   
    22     7    38 1   
    23     8    39 1   
    24     8    40 1   
    25     9    10 1   
    26    10    11 2   
    27    10    12 2   
    28    10    13 1   
    29    13    26 ar  
    30    14    15 2   
    31    14    16 1   
    32    14    49 1   
    33    16    17 1   
    34    16    42 1   
    35    16    43 1   
    36    17    18 1   
    37    17    22 1   
    38    18    19 2   
    39    18    20 1   
    40    20    21 1   
    41    20    44 1   
    42    20    47 1   
    43    21    22 1   
    44    21    48 1   
    45    22    23 2   
    46    24    25 ar  
    47    24    45 1   
    48    25    26 ar  
    49    25    46 1   
    50    26    27 1   
    51    41    49 1   
@<TRIPOS>SUBSTRUCTURE
     1 KW5         1 TEMP              0 ****  ****    0 ROOT
