@<TRIPOS>MOLECULE
KW6
   50    54     1     0     0
SMALL
abcg2


@<TRIPOS>ATOM
      1 C8          45.2920     0.9460   -38.6050 ca         1 KW6       0.370900
      2 C7          43.9190     1.1250   -38.9340 ca         1 KW6      -0.011000
      3 C12         45.4810     3.6670   -42.7130 ca         1 KW6      -0.105000
      4 C11         44.4290     3.1640   -41.9980 ca         1 KW6      -0.092000
      5 C10         44.6620     2.4000   -40.8320 ca         1 KW6      -0.079000
      6 C9          45.9940     2.1590   -40.4120 ca         1 KW6       0.268000
      7 C14         47.0610     2.6880   -41.1700 ca         1 KW6      -0.081000
      8 C15         43.6180     1.8590   -40.0590 ca         1 KW6      -0.053000
      9 C17         39.6040    -2.5020   -33.9850 c5         1 KW6       0.312300
     10 C20         40.7330    -2.9620   -32.0020 c5         1 KW6       0.134300
     11 C21         42.2200    -2.7720   -31.8030 c3         1 KW6       0.148600
     12 C6          42.9110     0.5510   -38.1200 cg         1 KW6      -0.151000
     13 C4          41.0000    -0.5190   -36.6890 cd         1 KW6       0.002100
     14 C3          39.5930    -0.4020   -36.9450 ca         1 KW6      -0.241800
     15 C2          38.9350    -1.1290   -35.9570 ca         1 KW6       0.169500
     16 C1          36.9520    -0.6240   -36.7800 ca         1 KW6       0.180900
     17 C           38.7660     0.2360   -37.8910 ca         1 KW6       0.439900
     18 O           39.3150    -4.6950   -34.8790 oh         1 KW6      -0.675000
     19 C13         46.8070     3.4240   -42.2960 ca         1 KW6      -0.101000
     20 C16         41.1200    -1.3030   -35.5680 cc         1 KW6      -0.116100
     21 C18         40.1700    -3.9170   -34.1030 c5         1 KW6       0.138300
     22 C19         40.3160    -4.3030   -32.6310 c5         1 KW6       0.108300
     23 C5          42.0490     0.0470   -37.4390 ch         1 KW6      -0.078300
     24 N1          37.4400     0.1040   -37.7790 nb         1 KW6      -0.303000
     25 N2          37.6150    -1.2670   -35.8380 nb         1 KW6      -0.223000
     26 N3          46.2760     1.4330   -39.3010 nb         1 KW6      -0.660000
     27 N4          39.8770    -1.6720   -35.1310 na         1 KW6      -0.182400
     28 O1          39.0600    -4.7360   -32.1730 oh         1 KW6      -0.690000
     29 O2          40.2050    -1.9410   -32.8550 os         1 KW6      -0.446000
     30 O3          42.9080    -2.9790   -33.0130 oh         1 KW6      -0.730000
     31 H1          45.5480     0.3690   -37.7220 h4         1 KW6       0.025100
     32 H2          45.3010     4.2520   -43.6050 ha         1 KW6       0.116000
     33 H3          43.4080     3.3450   -42.3130 ha         1 KW6       0.115000
     34 H4          48.0740     2.4960   -40.8420 ha         1 KW6       0.132000
     35 H5          42.5880     2.0230   -40.3530 ha         1 KW6       0.118000
     36 H6          38.5130    -2.5400   -33.8900 h2         1 KW6       0.126700
     37 H7          40.2720    -2.8610   -31.0120 h1         1 KW6       0.070700
     38 H8          42.3950    -1.7650   -31.4040 h1         1 KW6       0.034200
     39 H9          42.5380    -3.4800   -31.0270 h1         1 KW6       0.034200
     40 H10         35.8700    -0.6960   -36.7380 h5         1 KW6       0.045100
     41 H11         38.6140     1.4030   -39.5480 hn         1 KW6       0.501500
     42 H12         40.2330     1.1010   -39.0390 hn         1 KW6       0.501500
     43 H13         39.7780    -5.4940   -35.1470 ho         1 KW6       0.511000
     44 H14         47.6280     3.8270   -42.8740 ha         1 KW6       0.117000
     45 H15         42.0110    -1.6160   -35.0470 h4         1 KW6       0.236000
     46 H16         41.1760    -3.8640   -34.5350 h1         1 KW6       0.065700
     47 H17         41.0840    -5.0710   -32.4780 h1         1 KW6       0.057700
     48 H18         39.1320    -4.9430   -31.2360 ho         1 KW6       0.502000
     49 H19         43.8420    -2.8010   -32.8700 ho         1 KW6       0.513000
     50 N           39.2460     0.9720   -38.8970 nv         1 KW6      -1.076900
@<TRIPOS>BOND
     1     1     2 ar  
     2     1    26 ar  
     3     1    31 1   
     4     2     8 ar  
     5     2    12 1   
     6     3     4 ar  
     7     3    19 ar  
     8     3    32 1   
     9     4     5 ar  
    10     4    33 1   
    11     5     6 ar  
    12     5     8 ar  
    13     6     7 ar  
    14     6    26 ar  
    15     7    19 ar  
    16     7    34 1   
    17     8    35 1   
    18     9    21 1   
    19     9    27 1   
    20     9    29 1   
    21     9    36 1   
    22    10    11 1   
    23    10    22 1   
    24    10    29 1   
    25    10    37 1   
    26    11    30 1   
    27    11    38 1   
    28    11    39 1   
    29    12    23 3   
    30    13    14 1   
    31    13    20 2   
    32    13    23 1   
    33    14    15 ar  
    34    14    17 ar  
    35    15    25 ar  
    36    15    27 1   
    37    16    24 ar  
    38    16    25 ar  
    39    16    40 1   
    40    17    24 ar  
    41    17    50 1   
    42    18    21 1   
    43    18    43 1   
    44    19    44 1   
    45    20    27 1   
    46    20    45 1   
    47    21    22 1   
    48    21    46 1   
    49    22    28 1   
    50    22    47 1   
    51    28    48 1   
    52    30    49 1   
    53    41    50 1   
    54    42    50 1   
@<TRIPOS>SUBSTRUCTURE
     1 KW6         1 TEMP              0 ****  ****    0 ROOT
