@<TRIPOS>MOLECULE
KW6
   50    54     1     0     0
SMALL
No Charge or Current Charge


@<TRIPOS>ATOM
      1 C8          44.9590     2.0510   -38.2960 ca         1 KW6       0.370900
      2 C7          43.8720     1.3850   -38.8960 ca         1 KW6      -0.011000
      3 C12         45.7150     2.7040   -43.1870 ca         1 KW6      -0.105000
      4 C11         44.7190     2.0470   -42.4460 ca         1 KW6      -0.092000
      5 C10         44.7790     2.0350   -41.0390 ca         1 KW6      -0.079000
      6 C9          45.8420     2.6840   -40.3560 ca         1 KW6       0.268000
      7 C14         46.8300     3.3360   -41.1180 ca         1 KW6      -0.081000
      8 C15         43.7810     1.3770   -40.2970 ca         1 KW6      -0.053000
      9 C17         39.6710    -2.7830   -34.2020 c5         1 KW6       0.312300
     10 C20         40.5740    -3.3000   -32.0750 c5         1 KW6       0.134300
     11 C21         42.0490    -2.9230   -31.7200 c3         1 KW6       0.148600
     12 C6          42.8770     0.7260   -38.0980 cg         1 KW6      -0.151000
     13 C4          40.9800    -0.4380   -36.6810 cd         1 KW6       0.002100
     14 C3          39.5650    -0.1550   -36.7340 ca         1 KW6      -0.241800
     15 C2          38.9480    -0.9690   -35.8170 ca         1 KW6       0.169500
     16 C1          36.9390    -0.0370   -36.4060 ca         1 KW6       0.180900
     17 C           38.7980     0.7350   -37.4930 ca         1 KW6       0.439900
     18 O           39.8630    -5.0820   -35.2220 oh         1 KW6      -0.675000
     19 C13         46.7700     3.3480   -42.5240 ca         1 KW6      -0.101000
     20 C16         41.2000    -1.4250   -35.7350 cc         1 KW6      -0.116100
     21 C18         40.4640    -4.1290   -34.3330 c5         1 KW6       0.138300
     22 C19         40.3720    -4.6390   -32.8690 c5         1 KW6       0.108300
     23 C5          42.0250     0.1630   -37.4300 ch         1 KW6      -0.078300
     24 N1          37.4690     0.8000   -37.3310 nb         1 KW6      -0.303000
     25 N2          37.6120    -0.9260   -35.6360 nb         1 KW6      -0.223000
     26 N3          45.9250     2.6880   -39.0040 nb         1 KW6      -0.660000
     27 N4          39.9270    -1.7450   -35.2090 na         1 KW6      -0.182400
     28 O1          39.0810    -5.2400   -32.6330 oh         1 KW6      -0.690000
     29 O2          39.9690    -2.2570   -32.8850 os         1 KW6      -0.446000
     30 O3          42.9310    -2.9230   -32.8580 oh         1 KW6      -0.730000
     31 H1          45.0640     2.0780   -37.2110 h4         1 KW6       0.025100
     32 H2          45.6680     2.7130   -44.2740 ha         1 KW6       0.116000
     33 H3          43.9030     1.5490   -42.9660 ha         1 KW6       0.115000
     34 H4          47.6510     3.8370   -40.6120 ha         1 KW6       0.132000
     35 H5          42.9570     0.8720   -40.7960 ha         1 KW6       0.118000
     36 H6          38.5970    -3.0060   -34.2550 h2         1 KW6       0.126700
     37 H7          40.0280    -3.3430   -31.1230 h1         1 KW6       0.070700
     38 H8          42.0450    -1.9330   -31.2430 h1         1 KW6       0.034200
     39 H9          42.4100    -3.6400   -30.9700 h1         1 KW6       0.034200
     40 H10         35.8600     0.0080   -36.2680 h5         1 KW6       0.045100
     41 H11         38.7580     2.3540   -38.7360 hn         1 KW6       0.501500
     42 H12         40.3330     1.7000   -38.4260 hn         1 KW6       0.501500
     43 H13         39.2390    -5.5780   -34.6350 ho         1 KW6       0.511000
     44 H14         47.5430     3.8580   -43.0960 ha         1 KW6       0.117000
     45 H15         42.1220    -1.8900   -35.4020 h4         1 KW6       0.236000
     46 H16         41.5050    -3.9470   -34.6260 h1         1 KW6       0.065700
     47 H17         41.1740    -5.3580   -32.6480 h1         1 KW6       0.057700
     48 H18         39.0720    -5.5750   -31.7050 ho         1 KW6       0.502000
     49 H19         43.8190    -2.6400   -32.5340 ho         1 KW6       0.513000
     50 N           39.3250     1.5730   -38.4190 nv         1 KW6      -1.076900
@<TRIPOS>BOND
     1     1     2 ar  
     2     1    26 ar  
     3     1    31 1   
     4     2     8 ar  
     5     2    12 1   
     6     3     4 ar  
     7     3    19 ar  
     8     3    32 1   
     9     4     5 ar  
    10     4    33 1   
    11     5     6 ar  
    12     5     8 ar  
    13     6     7 ar  
    14     6    26 ar  
    15     7    19 ar  
    16     7    34 1   
    17     8    35 1   
    18     9    21 1   
    19     9    27 1   
    20     9    29 1   
    21     9    36 1   
    22    10    11 1   
    23    10    22 1   
    24    10    29 1   
    25    10    37 1   
    26    11    30 1   
    27    11    38 1   
    28    11    39 1   
    29    12    23 3   
    30    13    14 1   
    31    13    20 2   
    32    13    23 1   
    33    14    15 ar  
    34    14    17 ar  
    35    15    25 ar  
    36    15    27 1   
    37    16    24 ar  
    38    16    25 ar  
    39    16    40 1   
    40    17    24 ar  
    41    17    50 1   
    42    18    21 1   
    43    18    43 1   
    44    19    44 1   
    45    20    27 1   
    46    20    45 1   
    47    21    22 1   
    48    21    46 1   
    49    22    28 1   
    50    22    47 1   
    51    28    48 1   
    52    30    49 1   
    53    41    50 1   
    54    42    50 1   
@<TRIPOS>SUBSTRUCTURE
     1 KW6         1 TEMP              0 ****  ****    0 ROOT
