@<TRIPOS>MOLECULE
KW7
   28    29     1     0     0
SMALL
No Charge or Current Charge


@<TRIPOS>ATOM
      1 C13         -2.7150     1.4220    -0.4310 ca         1 KW7      -0.086000
      2 C15          5.5070     0.0700    -0.0180 c3         1 KW7       0.158900
      3 C17         -4.7440     0.0770    -0.4000 ca         1 KW7      -0.087000
      4 C01          1.8050     0.2410     0.0360 cc         1 KW7      -0.336600
      5 C02         -0.4620     0.5050     0.1270 cd         1 KW7      -0.197000
      6 C03          0.6110    -0.3850    -0.1650 cd         1 KW7       0.344000
      7 C05          0.1030     1.7260     0.4190 cc         1 KW7      -0.106000
      8 C06         -1.9300     0.3100    -0.0430 ca         1 KW7      -0.036000
      9 C08         -2.6020    -0.9200     0.1970 ca         1 KW7       0.177000
     10 C14         -3.9910    -1.0310     0.0140 ca         1 KW7      -0.156000
     11 C16         -4.1040     1.3050    -0.6160 ca         1 KW7      -0.130000
     12 F12         -1.9520    -1.9950     0.6930 f          1 KW7      -0.167000
     13 N04          1.4850     1.5470     0.4130 na         1 KW7      -0.071000
     14 N09          0.4370    -1.6400    -0.6460 nv         1 KW7      -1.042000
     15 O10          3.3350    -1.5240    -0.4730 o          1 KW7      -0.512000
     16 O11          4.1480     0.5280     0.1130 os         1 KW7      -0.461100
     17 H1          -2.2490     2.3840    -0.6220 ha         1 KW7       0.115000
     18 H2           5.7070    -0.7620     0.6700 h1         1 KW7       0.047033
     19 H3           5.7090    -0.2690    -1.0430 h1         1 KW7       0.047033
     20 H4           6.2080     0.8810     0.2160 h1         1 KW7       0.047033
     21 H5          -5.8200    -0.0120    -0.5400 ha         1 KW7       0.116000
     22 H6          -0.3500     2.6830     0.6500 h4         1 KW7       0.150000
     23 H7          -4.4860    -1.9790     0.2130 ha         1 KW7       0.131000
     24 H8          -4.6840     2.1700    -0.9300 ha         1 KW7       0.116000
     25 H9           2.1650     2.2730     0.6250 hn         1 KW7       0.364000
     26 H10         -0.4610    -2.0870    -0.4880 hn         1 KW7       0.464500
     27 H11          1.2550    -2.2440    -0.6950 hn         1 KW7       0.464500
     28 C07          3.1370    -0.3610    -0.1450 c          1 KW7       0.645700
@<TRIPOS>BOND
     1     1     8 ar  
     2     1    11 ar  
     3     1    17 1   
     4     2    16 1   
     5     2    18 1   
     6     2    19 1   
     7     2    20 1   
     8     3    10 ar  
     9     3    11 ar  
    10     3    21 1   
    11     4     6 2   
    12     4    13 1   
    13     4    28 1   
    14     5     6 1   
    15     5     7 2   
    16     5     8 1   
    17     6    14 1   
    18     7    13 1   
    19     7    22 1   
    20     8     9 ar  
    21     9    10 ar  
    22     9    12 1   
    23    10    23 1   
    24    11    24 1   
    25    13    25 1   
    26    14    26 1   
    27    14    27 1   
    28    15    28 2   
    29    16    28 1   
@<TRIPOS>SUBSTRUCTURE
     1 KW7         1 TEMP              0 ****  ****    0 ROOT
