@<TRIPOS>MOLECULE
KW7
   28    29     1     0     0
SMALL
abcg2


@<TRIPOS>ATOM
      1 C13         -2.6650     1.2920    -0.7160 ca         1 KW7      -0.086000
      2 C15          5.4110     0.1020     0.0330 c3         1 KW7       0.158900
      3 C17         -4.6870     0.0570    -0.3180 ca         1 KW7      -0.087000
      4 C01          1.7830     0.1690     0.0560 cc         1 KW7      -0.336600
      5 C02         -0.4560     0.4860     0.1230 cd         1 KW7      -0.197000
      6 C03          0.5610    -0.4350    -0.2450 cd         1 KW7       0.344000
      7 C05          0.1850     1.6070     0.6220 cc         1 KW7      -0.106000
      8 C06         -1.9040     0.3350    -0.0380 ca         1 KW7      -0.036000
      9 C08         -2.5960    -0.7460     0.4970 ca         1 KW7       0.177000
     10 C14         -3.9610    -0.9090     0.3640 ca         1 KW7      -0.156000
     11 C16         -4.0390     1.1630    -0.8510 ca         1 KW7      -0.130000
     12 F12         -1.9080    -1.6650     1.1930 f          1 KW7      -0.167000
     13 N04          1.5060     1.4150     0.5880 na         1 KW7      -0.071000
     14 N09          0.3640    -1.6820    -0.7740 nv         1 KW7      -1.042000
     15 O10          3.3390    -1.4380    -0.6530 o          1 KW7      -0.512000
     16 O11          4.0560     0.5050     0.2130 os         1 KW7      -0.461100
     17 H1          -2.1580     2.1440    -1.1490 ha         1 KW7       0.115000
     18 H2           5.6480    -0.7850     0.6210 h1         1 KW7       0.047033
     19 H3           5.6360    -0.0940    -1.0160 h1         1 KW7       0.047033
     20 H4           6.0180     0.9330     0.3790 h1         1 KW7       0.047033
     21 H5          -5.7570    -0.0580    -0.4280 ha         1 KW7       0.116000
     22 H6          -0.2420     2.5170     1.0120 h4         1 KW7       0.150000
     23 H7          -4.4470    -1.7730     0.7990 ha         1 KW7       0.131000
     24 H8          -4.6000     1.9210    -1.3810 ha         1 KW7       0.116000
     25 H9           2.1930     2.0740     0.9130 hn         1 KW7       0.364000
     26 H10         -0.4840    -1.7940    -1.3070 hn         1 KW7       0.464500
     27 H11          1.1620    -2.0830    -1.2390 hn         1 KW7       0.464500
     28 C07          3.1030    -0.3470    -0.1680 c          1 KW7       0.645700
@<TRIPOS>BOND
     1     1     8 ar  
     2     1    11 ar  
     3     1    17 1   
     4     2    16 1   
     5     2    18 1   
     6     2    19 1   
     7     2    20 1   
     8     3    10 ar  
     9     3    11 ar  
    10     3    21 1   
    11     4     6 2   
    12     4    13 1   
    13     4    28 1   
    14     5     6 1   
    15     5     7 2   
    16     5     8 1   
    17     6    14 1   
    18     7    13 1   
    19     7    22 1   
    20     8     9 ar  
    21     9    10 ar  
    22     9    12 1   
    23    10    23 1   
    24    11    24 1   
    25    13    25 1   
    26    14    26 1   
    27    14    27 1   
    28    15    28 2   
    29    16    28 1   
@<TRIPOS>SUBSTRUCTURE
     1 KW7         1 TEMP              0 ****  ****    0 ROOT
