@<TRIPOS>MOLECULE
KW8
   31    33     1     0     0
SMALL
bcc


@<TRIPOS>ATOM
      1 CAA          4.2110    -1.5850     0.2990 c3         1 KW8      -0.092100
      2 CAG          2.7000    -1.4640     0.4390 c3         1 KW8      -0.073400
      3 CAO          2.1080    -0.3020    -0.3610 c6         1 KW8       0.239700
      4 CAL          0.6200    -0.2320    -0.2380 cc         1 KW8      -0.066300
      5 NAJ         -0.2260    -1.3030    -0.3600 na         1 KW8      -0.170400
      6 CAM         -1.5140    -0.8790    -0.1920 ca         1 KW8      -0.042200
      7 CAD         -2.7100    -1.5910    -0.2270 ca         1 KW8      -0.149000
      8 CAB         -3.8820    -0.8850    -0.0200 ca         1 KW8      -0.111000
      9 CAC         -3.8670     0.4980     0.2170 ca         1 KW8      -0.161000
     10 CAE         -2.6770     1.2020     0.2500 ca         1 KW8      -0.078000
     11 CAN         -1.4760     0.5150     0.0440 ca         1 KW8      -0.088800
     12 CAK         -0.1000     0.9010     0.0070 cd         1 KW8      -0.123400
     13 CAH          0.5510     2.2360     0.1370 c6         1 KW8       0.002800
     14 CAF          1.9640     2.1350    -0.4280 c6         1 KW8       0.162800
     15 NAI          2.6370     0.9670     0.1210 n7         1 KW8      -0.807200
     16 H1           4.5030    -1.7020    -0.7460 hc         1 KW8       0.034367
     17 H2           4.7330    -0.7130     0.6970 hc         1 KW8       0.034367
     18 H3           4.5790    -2.4550     0.8430 hc         1 KW8       0.034367
     19 H4           2.2460    -2.4000     0.1010 hc         1 KW8       0.047200
     20 H5           2.4250    -1.3420     1.4900 hc         1 KW8       0.047200
     21 H6           2.3540    -0.4690    -1.4270 h1         1 KW8       0.025700
     22 H7           0.0510    -2.2510    -0.5500 hn         1 KW8       0.296700
     23 H8          -2.7260    -2.6590    -0.4080 ha         1 KW8       0.129000
     24 H9          -4.8280    -1.4110    -0.0430 ha         1 KW8       0.126000
     25 H10         -4.8030     1.0180     0.3770 ha         1 KW8       0.127000
     26 H11         -2.6770     2.2700     0.4310 ha         1 KW8       0.130000
     27 H12         -0.0080     3.0010    -0.4080 hc         1 KW8       0.051200
     28 H13          0.5870     2.5620     1.1820 hc         1 KW8       0.051200
     29 H14          1.9090     2.1110    -1.5280 h1         1 KW8       0.031700
     30 H15          2.5430     3.0190    -0.1570 h1         1 KW8       0.031700
     31 H16          3.6210     1.0180    -0.1060 hn         1 KW8       0.357800
@<TRIPOS>BOND
     1     1     2 1   
     2     1    16 1   
     3     1    17 1   
     4     1    18 1   
     5     2     3 1   
     6     2    19 1   
     7     2    20 1   
     8     3     4 1   
     9     3    15 1   
    10     3    21 1   
    11     4     5 1   
    12     4    12 2   
    13     5     6 1   
    14     5    22 1   
    15     6     7 ar  
    16     6    11 ar  
    17     7     8 ar  
    18     7    23 1   
    19     8     9 ar  
    20     8    24 1   
    21     9    10 ar  
    22     9    25 1   
    23    10    11 ar  
    24    10    26 1   
    25    11    12 1   
    26    12    13 1   
    27    13    14 1   
    28    13    27 1   
    29    13    28 1   
    30    14    15 1   
    31    14    29 1   
    32    14    30 1   
    33    15    31 1   
@<TRIPOS>SUBSTRUCTURE
     1 KW8         1 TEMP              0 ****  ****    0 ROOT
