@<TRIPOS>MOLECULE
KW8
   31    33     1     0     0
SMALL
No Charge or Current Charge


@<TRIPOS>ATOM
      1 CAA          4.3200    -1.6200     0.2640 c3         1 KW8      -0.092100
      2 CAG          2.7910    -1.4740     0.4340 c3         1 KW8      -0.073400
      3 CAO          2.1500    -0.2940    -0.3530 c6         1 KW8       0.239700
      4 CAL          0.6360    -0.2820    -0.2190 cc         1 KW8      -0.066300
      5 NAJ         -0.2760    -1.3540    -0.3200 na         1 KW8      -0.220700
      6 CAM         -1.5700    -0.8810    -0.1700 ca         1 KW8      -0.042200
      7 CAD         -2.7780    -1.5890    -0.1920 ca         1 KW8      -0.131000
      8 CAB         -3.9740    -0.8590    -0.0140 ca         1 KW8      -0.093000
      9 CAC         -3.9360     0.5450     0.1800 ca         1 KW8      -0.143000
     10 CAE         -2.7020     1.2320     0.1970 ca         1 KW8      -0.060000
     11 CAN         -1.5380     0.4740     0.0180 ca         1 KW8      -0.088800
     12 CAK         -0.1450     0.8490    -0.0200 cd         1 KW8      -0.123400
     13 CAH          0.4970     2.2120     0.1220 c6         1 KW8       0.002800
     14 CAF          1.9700     2.1830    -0.3740 c6         1 KW8       0.162800
     15 NAI          2.7020     0.9960     0.1410 n7         1 KW8      -0.862400
     16 H1           4.5830    -1.7290    -0.7950 hc         1 KW8       0.034367
     17 H2           4.8480    -0.7480     0.6670 hc         1 KW8       0.034367
     18 H3           4.6780    -2.5080     0.7990 hc         1 KW8       0.034367
     19 H4           2.3320    -2.4150     0.1090 hc         1 KW8       0.047200
     20 H5           2.5620    -1.3760     1.5020 hc         1 KW8       0.047200
     21 H6           2.4120    -0.4050    -1.4160 h1         1 KW8       0.025700
     22 H7          -0.0270    -2.3230    -0.4850 hn         1 KW8       0.347000
     23 H8          -2.7970    -2.6660    -0.3420 ha         1 KW8       0.111000
     24 H9          -4.9300    -1.3770    -0.0250 ha         1 KW8       0.108000
     25 H10         -4.8630     1.0970     0.3160 ha         1 KW8       0.109000
     26 H11         -2.6570     2.3080     0.3440 ha         1 KW8       0.112000
     27 H12         -0.0660     2.9710    -0.4370 hc         1 KW8       0.051200
     28 H13          0.4760     2.5210     1.1750 hc         1 KW8       0.051200
     29 H14          1.9850     2.1660    -1.4750 h1         1 KW8       0.031700
     30 H15          2.4810     3.1030    -0.0520 h1         1 KW8       0.031700
     31 H16          3.6860     1.0540    -0.1450 hn         1 KW8       0.413000
@<TRIPOS>BOND
     1     1     2 1   
     2     1    16 1   
     3     1    17 1   
     4     1    18 1   
     5     2     3 1   
     6     2    19 1   
     7     2    20 1   
     8     3     4 1   
     9     3    15 1   
    10     3    21 1   
    11     4     5 1   
    12     4    12 2   
    13     5     6 1   
    14     5    22 1   
    15     6     7 ar  
    16     6    11 ar  
    17     7     8 ar  
    18     7    23 1   
    19     8     9 ar  
    20     8    24 1   
    21     9    10 ar  
    22     9    25 1   
    23    10    11 ar  
    24    10    26 1   
    25    11    12 1   
    26    12    13 1   
    27    13    14 1   
    28    13    27 1   
    29    13    28 1   
    30    14    15 1   
    31    14    29 1   
    32    14    30 1   
    33    15    31 1   
@<TRIPOS>SUBSTRUCTURE
     1 KW8         1 TEMP              0 ****  ****    0 ROOT
