@<TRIPOS>MOLECULE
KW9
   43    45     1     0     0
SMALL
abcg2


@<TRIPOS>ATOM
      1 N1           5.5940     1.8100    18.1680 ns         1 KW9      -0.374100
      2 C4          14.1320    -1.5300    21.9310 ca         1 KW9      -0.108000
      3 C5          12.7770    -1.8570    21.9810 ca         1 KW9      -0.166000
      4 C6          11.8380    -0.8990    22.3260 ca         1 KW9       0.108100
      5 C7          10.0020    -2.3790    22.0150 c3         1 KW9       0.143600
      6 C8           8.4970    -2.3200    22.1270 c3         1 KW9       0.101000
      7 C10          6.3520    -0.2250    19.8390 cc         1 KW9      -0.035400
      8 C13          4.8090     1.5620    19.2610 ca         1 KW9       0.128600
      9 C15          2.9200     2.0760    20.6110 ca         1 KW9       0.230000
     10 C17          4.3460     0.2900    21.2590 ca         1 KW9      -0.011000
     11 F            1.8360     2.8220    20.8480 f          1 KW9      -0.169000
     12 C14          3.6770     2.3470    19.4980 ca         1 KW9      -0.224000
     13 C16          3.2320     1.0590    21.5060 ca         1 KW9      -0.191000
     14 C18          5.1550     0.5180    20.1370 ca         1 KW9      -0.133800
     15 C12          6.7420     1.1360    17.8370 c          1 KW9       0.563200
     16 O3           7.3850     1.4250    16.8390 o          1 KW9      -0.538000
     17 C11          7.1060     0.0760    18.7620 cd         1 KW9      -0.273200
     18 C9           6.7370    -1.3990    20.6950 c          1 KW9       0.602300
     19 O2           5.9830    -2.3490    20.8240 o          1 KW9      -0.590100
     20 N            7.9490    -1.3050    21.2540 ns         1 KW9      -0.494900
     21 O1          10.5100    -1.1190    22.4100 os         1 KW9      -0.342100
     22 C1          12.2570     0.4140    22.6250 ca         1 KW9       0.112100
     23 O           11.2750     1.2790    22.9450 os         1 KW9      -0.328100
     24 C           11.6350     2.6000    23.2860 c3         1 KW9       0.145900
     25 C3          14.5440    -0.2470    22.2270 ca         1 KW9      -0.105000
     26 C2          13.6060     0.7250    22.5760 ca         1 KW9      -0.168000
     27 H1           5.3190     2.5580    17.5450 hn         1 KW9       0.331500
     28 H3          12.4730    -2.8690    21.7510 ha         1 KW9       0.118000
     29 H4          10.3770    -3.1770    22.6640 h1         1 KW9       0.045700
     30 H5          10.2960    -2.6110    20.9850 h1         1 KW9       0.045700
     31 H6           8.2030    -2.1380    23.1650 h1         1 KW9       0.066200
     32 H7           8.0950    -3.2910    21.8420 h1         1 KW9       0.066200
     33 H8           4.5880    -0.5030    21.9510 ha         1 KW9       0.137000
     34 H9           3.4070     3.1500    18.8230 ha         1 KW9       0.139000
     35 H10          2.6090     0.8800    22.3720 ha         1 KW9       0.140000
     36 H11          8.0060    -0.4790    18.5300 ha         1 KW9       0.216000
     37 H12          8.4470    -0.4300    21.1820 hn         1 KW9       0.338500
     38 H13         10.7100     3.1210    23.5230 h1         1 KW9       0.040033
     39 H14         12.2900     2.6340    24.1610 h1         1 KW9       0.040033
     40 H15         12.1270     3.1190    22.4590 h1         1 KW9       0.040033
     41 H16         15.5920     0.0170    22.1930 ha         1 KW9       0.116000
     42 H17         13.9500     1.7260    22.8020 ha         1 KW9       0.120000
     43 H2          14.8510    -2.2920    21.6600 ha         1 KW9       0.116000
@<TRIPOS>BOND
     1     1     8 1   
     2     1    15 1   
     3     1    27 1   
     4     2     3 ar  
     5     2    25 ar  
     6     2    43 1   
     7     3     4 ar  
     8     3    28 1   
     9     4    21 1   
    10     4    22 ar  
    11     5     6 1   
    12     5    21 1   
    13     5    29 1   
    14     5    30 1   
    15     6    20 1   
    16     6    31 1   
    17     6    32 1   
    18     7    14 1   
    19     7    17 2   
    20     7    18 1   
    21     8    12 ar  
    22     8    14 ar  
    23     9    11 1   
    24     9    12 ar  
    25     9    13 ar  
    26    10    13 ar  
    27    10    14 ar  
    28    10    33 1   
    29    12    34 1   
    30    13    35 1   
    31    15    16 2   
    32    15    17 1   
    33    17    36 1   
    34    18    19 2   
    35    18    20 1   
    36    20    37 1   
    37    22    23 1   
    38    22    26 ar  
    39    23    24 1   
    40    24    38 1   
    41    24    39 1   
    42    24    40 1   
    43    25    26 ar  
    44    25    41 1   
    45    26    42 1   
@<TRIPOS>SUBSTRUCTURE
     1 KW9         1 TEMP              0 ****  ****    0 ROOT
