@<TRIPOS>MOLECULE
KW9
   43    45     1     0     0
SMALL
No Charge or Current Charge


@<TRIPOS>ATOM
      1 N1           5.1540     2.9250    20.3270 ns         1 KW9      -0.374100
      2 C4          13.2830    -2.4480    20.7240 ca         1 KW9      -0.108000
      3 C5          12.1030    -2.3350    21.4780 ca         1 KW9      -0.166000
      4 C6          11.6860    -1.0730    21.9610 ca         1 KW9       0.108100
      5 C7           9.6560    -2.0300    23.0120 c3         1 KW9       0.143600
      6 C8           8.4600    -1.4890    23.8280 c3         1 KW9       0.101000
      7 C10          6.2220     0.5250    21.4120 cc         1 KW9      -0.035400
      8 C13          4.7640     1.7240    19.7400 ca         1 KW9       0.128600
      9 C15          3.4680     0.5700    18.0510 ca         1 KW9       0.230000
     10 C17          4.8410    -0.6890    19.6130 ca         1 KW9      -0.011000
     11 F            2.6120     0.6000    17.0080 f          1 KW9      -0.169000
     12 C14          3.8740     1.7600    18.6570 ca         1 KW9      -0.224000
     13 C16          3.9490    -0.6520    18.5270 ca         1 KW9      -0.191000
     14 C18          5.2730     0.5060    20.2510 ca         1 KW9      -0.133800
     15 C12          6.0020     3.0760    21.3750 c          1 KW9       0.563200
     16 O3           6.2900     4.1720    21.8270 o          1 KW9      -0.538000
     17 C11          6.5270     1.8050    21.9010 cd         1 KW9      -0.273200
     18 C9           6.8400    -0.7040    22.0510 c          1 KW9       0.602300
     19 O2           6.6400    -1.8590    21.7040 o          1 KW9      -0.590100
     20 N            7.6900    -0.4580    23.1130 ns         1 KW9      -0.494900
     21 O1          10.5280    -0.9250    22.7060 os         1 KW9      -0.342100
     22 C1          12.4640     0.0780    21.6800 ca         1 KW9       0.112100
     23 O           12.0340     1.3040    22.1620 os         1 KW9      -0.328100
     24 C           12.7560     2.5250    21.9220 c3         1 KW9       0.145900
     25 C3          14.0540    -1.3090    20.4450 ca         1 KW9      -0.105000
     26 C2          13.6500    -0.0490    20.9190 ca         1 KW9      -0.168000
     27 H1           4.7720     3.7770    19.9380 hn         1 KW9       0.331500
     28 H3          11.5290    -3.2350    21.6770 ha         1 KW9       0.118000
     29 H4          10.1830    -2.7880    23.6060 h1         1 KW9       0.045700
     30 H5           9.2880    -2.5020    22.0920 h1         1 KW9       0.045700
     31 H6           8.8320    -1.0630    24.7690 h1         1 KW9       0.066200
     32 H7           7.7920    -2.3220    24.0820 h1         1 KW9       0.066200
     33 H8           5.1740    -1.6690    19.9300 ha         1 KW9       0.137000
     34 H9           3.4960     2.7070    18.2820 ha         1 KW9       0.139000
     35 H10          3.6300    -1.5770    18.0520 ha         1 KW9       0.140000
     36 H11          7.1950     1.9850    22.7310 ha         1 KW9       0.216000
     37 H12          7.8490     0.5070    23.3640 hn         1 KW9       0.338500
     38 H13         12.2390     3.3700    22.3910 h1         1 KW9       0.040033
     39 H14         13.7680     2.4690    22.3430 h1         1 KW9       0.040033
     40 H15         12.8320     2.7280    20.8460 h1         1 KW9       0.040033
     41 H16         14.9670    -1.4020    19.8600 ha         1 KW9       0.116000
     42 H17         14.2680     0.8130    20.6860 ha         1 KW9       0.120000
     43 H2          13.6010    -3.4210    20.3540 ha         1 KW9       0.116000
@<TRIPOS>BOND
     1     1     8 1   
     2     1    15 1   
     3     1    27 1   
     4     2     3 ar  
     5     2    25 ar  
     6     2    43 1   
     7     3     4 ar  
     8     3    28 1   
     9     4    21 1   
    10     4    22 ar  
    11     5     6 1   
    12     5    21 1   
    13     5    29 1   
    14     5    30 1   
    15     6    20 1   
    16     6    31 1   
    17     6    32 1   
    18     7    14 1   
    19     7    17 2   
    20     7    18 1   
    21     8    12 ar  
    22     8    14 ar  
    23     9    11 1   
    24     9    12 ar  
    25     9    13 ar  
    26    10    13 ar  
    27    10    14 ar  
    28    10    33 1   
    29    12    34 1   
    30    13    35 1   
    31    15    16 2   
    32    15    17 1   
    33    17    36 1   
    34    18    19 2   
    35    18    20 1   
    36    20    37 1   
    37    22    23 1   
    38    22    26 ar  
    39    23    24 1   
    40    24    38 1   
    41    24    39 1   
    42    24    40 1   
    43    25    26 ar  
    44    25    41 1   
    45    26    42 1   
@<TRIPOS>SUBSTRUCTURE
     1 KW9         1 TEMP              0 ****  ****    0 ROOT
