@<TRIPOS>MOLECULE
KWA
   27    28     1     0     0
SMALL
No Charge or Current Charge


@<TRIPOS>ATOM
      1 C10          2.2030    -1.4040     0.1100 ca         1 KWA       0.124000
      2 C15         -4.4230    -0.2070     0.5150 c3         1 KWA       0.127500
      3 C01         -0.9280     0.7260     0.1820 cc         1 KWA       0.175500
      4 C03          0.4890     0.3460     0.1120 ca         1 KWA      -0.095500
      5 C04         -1.4340     1.9960     0.1140 cd         1 KWA      -0.159000
      6 C05         -3.1090     0.5220     0.3550 cc         1 KWA       0.140300
      7 C06         -2.8350     1.8600     0.2260 cd         1 KWA      -0.185000
      8 C07          0.8530    -1.0180     0.1750 ca         1 KWA      -0.087500
      9 C08          1.5140     1.3120    -0.0180 ca         1 KWA      -0.087500
     10 C09          2.8620     0.9200    -0.0820 ca         1 KWA       0.124000
     11 C11          3.2090    -0.4370    -0.0190 ca         1 KWA      -0.095000
     12 C16         -6.4580    -1.0090    -0.6940 c3         1 KWA       0.142100
     13 N14         -5.1570    -0.3150    -0.7700 n7         1 KWA      -0.850400
     14 O02         -1.9330    -0.1990     0.3320 os         1 KWA      -0.214000
     15 Cl2          2.6310    -3.1080     0.1910 cl         1 KWA      -0.191000
     16 Cl3          4.1210     2.1380    -0.2440 cl         1 KWA      -0.191000
     17 H1          -4.2210    -1.2070     0.9250 h1         1 KWA       0.049700
     18 H2          -5.0270     0.3320     1.2580 h1         1 KWA       0.049700
     19 H3          -0.8830     2.9230    -0.0030 ha         1 KWA       0.143000
     20 H4          -3.5670     2.6620     0.2130 ha         1 KWA       0.141000
     21 H5           0.0910    -1.7870     0.2750 ha         1 KWA       0.142500
     22 H6           1.2800     2.3720    -0.0690 ha         1 KWA       0.142500
     23 H7           4.2520    -0.7370    -0.0690 ha         1 KWA       0.146000
     24 H8          -6.9290    -1.0570    -1.6840 h1         1 KWA       0.032367
     25 H9          -6.3320    -2.0370    -0.3270 h1         1 KWA       0.032367
     26 H10         -7.1440    -0.4840    -0.0150 h1         1 KWA       0.032367
     27 H11         -5.3210     0.6360    -1.1280 hn         1 KWA       0.413000
@<TRIPOS>BOND
     1     1     8 ar  
     2     1    11 ar  
     3     1    15 1   
     4     2     6 1   
     5     2    13 1   
     6     2    17 1   
     7     2    18 1   
     8     3     4 1   
     9     3     5 2   
    10     3    14 1   
    11     4     8 ar  
    12     4     9 ar  
    13     5     7 1   
    14     5    19 1   
    15     6     7 2   
    16     6    14 1   
    17     7    20 1   
    18     8    21 1   
    19     9    10 ar  
    20     9    22 1   
    21    10    11 ar  
    22    10    16 1   
    23    11    23 1   
    24    12    13 1   
    25    12    24 1   
    26    12    25 1   
    27    12    26 1   
    28    13    27 1   
@<TRIPOS>SUBSTRUCTURE
     1 KWA         1 TEMP              0 ****  ****    0 ROOT
