@<TRIPOS>MOLECULE
KWA
   27    28     1     0     0
SMALL
abcg2


@<TRIPOS>ATOM
      1 C10          1.8060    -1.4550    -0.1900 ca         1 KWA       0.124000
      2 C15         -4.4550     0.1420     0.4850 c3         1 KWA       0.127500
      3 C01         -0.9830     0.9920     0.2570 cc         1 KWA       0.175500
      4 C03          0.3430     0.4230     0.1050 ca         1 KWA      -0.095500
      5 C04         -1.4320     2.2720     0.3830 cd         1 KWA      -0.159000
      6 C05         -3.1620     0.8680     0.4220 cc         1 KWA       0.140300
      7 C06         -2.8480     2.1870     0.4880 cd         1 KWA      -0.185000
      8 C07          0.5240    -0.9530    -0.0440 ca         1 KWA      -0.087500
      9 C08          1.4570     1.2660     0.1070 ca         1 KWA      -0.087500
     10 C09          2.7200     0.7250    -0.0400 ca         1 KWA       0.124000
     11 C11          2.9240    -0.6380    -0.1920 ca         1 KWA      -0.095000
     12 C16         -5.9120    -1.4160    -0.6280 c3         1 KWA       0.142100
     13 N14         -4.6820    -0.6540    -0.7070 n7         1 KWA      -0.850400
     14 O02         -2.0330     0.1420     0.2820 os         1 KWA      -0.214000
     15 CL2          2.0210    -3.1620    -0.3760 cl         1 KWA      -0.191000
     16 CL3          4.0920     1.7780    -0.0350 cl         1 KWA      -0.191000
     17 H1          -4.4550    -0.5330     1.3480 h1         1 KWA       0.049700
     18 H2          -5.2410     0.8860     0.6770 h1         1 KWA       0.049700
     19 H3          -0.8340     3.1690     0.3940 ha         1 KWA       0.143000
     20 H4          -3.5460     3.0020     0.5940 ha         1 KWA       0.141000
     21 H5          -0.3190    -1.6290    -0.0500 ha         1 KWA       0.142500
     22 H6           1.3390     2.3340     0.2220 ha         1 KWA       0.142500
     23 H7           3.9180    -1.0470    -0.3070 ha         1 KWA       0.146000
     24 H8          -6.0660    -1.9580    -1.5610 h1         1 KWA       0.032367
     25 H9          -5.8400    -2.1520     0.1740 h1         1 KWA       0.032367
     26 H10         -6.8090    -0.8090    -0.4380 h1         1 KWA       0.032367
     27 H11         -4.7240    -0.0390    -1.5090 hn         1 KWA       0.413000
@<TRIPOS>BOND
     1     1     8 ar  
     2     1    11 ar  
     3     1    15 1   
     4     2     6 1   
     5     2    13 1   
     6     2    17 1   
     7     2    18 1   
     8     3     4 1   
     9     3     5 2   
    10     3    14 1   
    11     4     8 ar  
    12     4     9 ar  
    13     5     7 1   
    14     5    19 1   
    15     6     7 2   
    16     6    14 1   
    17     7    20 1   
    18     8    21 1   
    19     9    10 ar  
    20     9    22 1   
    21    10    11 ar  
    22    10    16 1   
    23    11    23 1   
    24    12    13 1   
    25    12    24 1   
    26    12    25 1   
    27    12    26 1   
    28    13    27 1   
@<TRIPOS>SUBSTRUCTURE
     1 KWA         1 TEMP              0 ****  ****    0 ROOT
