@<TRIPOS>MOLECULE
KWB
   31    32     1     0     0
SMALL
No Charge or Current Charge


@<TRIPOS>ATOM
      1 C1           0.1850    -1.6390     0.0390 ca         1 KWB      -0.073000
      2 C2          -1.1230    -2.1410     0.0570 ca         1 KWB      -0.217000
      3 C3          -2.2180    -1.2660     0.0680 ca         1 KWB       0.212100
      4 C4          -2.0260     0.1320     0.0620 ca         1 KWB      -0.270600
      5 C5          -0.7000     0.6280     0.0440 ca         1 KWB      -0.024000
      6 C6           0.4060    -0.2480     0.0320 ca         1 KWB      -0.184300
      7 C7           1.8350     0.3200     0.0130 c6         1 KWB       0.007600
      8 C8           2.6380    -0.0870     1.2800 c6         1 KWB      -0.069400
      9 C9           4.0670     0.5110     1.2620 c6         1 KWB      -0.074400
     10 C10          4.8280     0.1050    -0.0230 c6         1 KWB      -0.071400
     11 C11          4.0360     0.5040    -1.2920 c6         1 KWB      -0.074400
     12 C12          2.6060    -0.0940    -1.2710 c6         1 KWB      -0.069400
     13 C13         -3.1950     1.0940     0.0730 c          1 KWB       0.723600
     14 O14         -2.9690     2.2940     0.0670 o          1 KWB      -0.701500
     15 O15         -4.3260     0.6250     0.0890 o          1 KWB      -0.701500
     16 O16         -3.4700    -1.7870     0.0850 oh         1 KWB      -0.631100
     17 H1           1.0230    -2.3320     0.0310 ha         1 KWB       0.080000
     18 H2          -1.2890    -3.2150     0.0620 ha         1 KWB       0.100000
     19 H5          -0.5230     1.7010     0.0380 ha         1 KWB       0.117000
     20 H7           1.7680     1.4180     0.0110 hc         1 KWB       0.043700
     21 H8           2.1080     0.2530     2.1810 hc         1 KWB       0.040200
     22 H8A          2.7030    -1.1810     1.3530 hc         1 KWB       0.040200
     23 H9           4.0110     1.6070     1.3290 hc         1 KWB       0.028700
     24 H9A          4.6240     0.1730     2.1470 hc         1 KWB       0.028700
     25 H10          5.8180     0.5810    -0.0370 hc         1 KWB       0.026200
     26 H10A         5.0030    -0.9800    -0.0230 hc         1 KWB       0.026200
     27 H11          3.9780     1.5990    -1.3640 hc         1 KWB       0.028700
     28 H11A         4.5700     0.1600    -2.1880 hc         1 KWB       0.028700
     29 H12          2.6700    -1.1890    -1.3400 hc         1 KWB       0.040200
     30 H12A         2.0540     0.2410    -2.1600 hc         1 KWB       0.040200
     31 HO16        -4.0630    -0.9810     0.0900 ho         1 KWB       0.547000
@<TRIPOS>BOND
     1     1     2 ar  
     2     1     6 ar  
     3     1    17 1   
     4     2     3 ar  
     5     2    18 1   
     6     3     4 ar  
     7     3    16 1   
     8     4     5 ar  
     9     4    13 1   
    10     5     6 ar  
    11     5    19 1   
    12     6     7 1   
    13     7     8 1   
    14     7    12 1   
    15     7    20 1   
    16     8     9 1   
    17     8    21 1   
    18     8    22 1   
    19     9    10 1   
    20     9    23 1   
    21     9    24 1   
    22    10    11 1   
    23    10    25 1   
    24    10    26 1   
    25    11    12 1   
    26    11    27 1   
    27    11    28 1   
    28    12    29 1   
    29    12    30 1   
    30    13    14 1   
    31    13    15 1   
    32    16    31 1   
@<TRIPOS>SUBSTRUCTURE
     1 KWB         1 TEMP              0 ****  ****    0 ROOT
