@<TRIPOS>MOLECULE
KWB
   31    32     1     0     0
SMALL
abcg2


@<TRIPOS>ATOM
      1 C1           0.1940    -1.6030     0.0410 ca         1 KWB      -0.073000
      2 C2          -1.0890    -2.1180     0.0620 ca         1 KWB      -0.217000
      3 C3          -2.1950    -1.2620     0.0710 ca         1 KWB       0.212100
      4 C4          -1.9810     0.1280     0.0590 ca         1 KWB      -0.270600
      5 C5          -0.6740     0.6110     0.0390 ca         1 KWB      -0.024000
      6 C6           0.4330    -0.2250     0.0300 ca         1 KWB      -0.184300
      7 C7           1.8350     0.3290     0.0120 c6         1 KWB       0.007600
      8 C8           2.6270    -0.0720     1.2610 c6         1 KWB      -0.069400
      9 C9           4.0440     0.4920     1.2440 c6         1 KWB      -0.074400
     10 C10          4.7900     0.0860    -0.0230 c6         1 KWB      -0.071400
     11 C11          4.0150     0.4920    -1.2710 c6         1 KWB      -0.074400
     12 C12          2.5970    -0.0720    -1.2560 c6         1 KWB      -0.069400
     13 C13         -3.1550     1.0720     0.0680 c          1 KWB       0.723600
     14 O14         -2.9550     2.2900     0.0540 o          1 KWB      -0.701500
     15 O15         -4.3010     0.5210     0.0900 o          1 KWB      -0.701500
     16 O16         -3.4270    -1.7680     0.0930 oh         1 KWB      -0.631100
     17 H1           1.0280    -2.2960     0.0350 ha         1 KWB       0.080000
     18 H2          -1.2470    -3.1900     0.0700 ha         1 KWB       0.100000
     19 H5          -0.5270     1.6850     0.0300 ha         1 KWB       0.117000
     20 H7           1.7560     1.4240     0.0130 hc         1 KWB       0.043700
     21 H8           2.0980     0.2680     2.1560 hc         1 KWB       0.040200
     22 H8A          2.6750    -1.1650     1.3260 hc         1 KWB       0.040200
     23 H9           4.0010     1.5850     1.3070 hc         1 KWB       0.028700
     24 H9A          4.5890     0.1540     2.1290 hc         1 KWB       0.028700
     25 H10          5.7890     0.5310    -0.0350 hc         1 KWB       0.026200
     26 H10A         4.9340    -1.0000    -0.0240 hc         1 KWB       0.026200
     27 H11          3.9700     1.5850    -1.3330 hc         1 KWB       0.028700
     28 H11A         4.5380     0.1540    -2.1690 hc         1 KWB       0.028700
     29 H12          2.6420    -1.1650    -1.3230 hc         1 KWB       0.040200
     30 H12A         2.0480     0.2700    -2.1370 hc         1 KWB       0.040200
     31 HO16        -4.0210    -0.9330     0.0960 ho         1 KWB       0.547000
@<TRIPOS>BOND
     1     1     2 ar  
     2     1     6 ar  
     3     1    17 1   
     4     2     3 ar  
     5     2    18 1   
     6     3     4 ar  
     7     3    16 1   
     8     4     5 ar  
     9     4    13 1   
    10     5     6 ar  
    11     5    19 1   
    12     6     7 1   
    13     7     8 1   
    14     7    12 1   
    15     7    20 1   
    16     8     9 1   
    17     8    21 1   
    18     8    22 1   
    19     9    10 1   
    20     9    23 1   
    21     9    24 1   
    22    10    11 1   
    23    10    25 1   
    24    10    26 1   
    25    11    12 1   
    26    11    27 1   
    27    11    28 1   
    28    12    29 1   
    29    12    30 1   
    30    13    14 1   
    31    13    15 1   
    32    16    31 1   
@<TRIPOS>SUBSTRUCTURE
     1 KWB         1 TEMP              0 ****  ****    0 ROOT
