@<TRIPOS>MOLECULE
KWC
   32    34     1     0     0
SMALL
bcc


@<TRIPOS>ATOM
      1 CAB        137.7430   143.5980   141.2610 ca         1 KWC       0.140900
      2 CAC        138.6450   144.6380   141.3620 ca         1 KWC      -0.178000
      3 CAD        139.4040   144.9720   140.2510 ca         1 KWC      -0.079000
      4 CAE        139.2710   144.2800   139.0470 ca         1 KWC      -0.135500
      5 CAF        140.0870   144.6580   137.8850 cc         1 KWC       0.456800
      6 CAG        140.0950   144.0360   136.6760 cd         1 KWC      -0.218400
      7 CAI        141.5800   145.9520   136.8930 cd         1 KWC       0.712300
      8 CAK        143.3620   146.9350   135.5690 c6         1 KWC       0.171800
      9 CAL        143.8990   148.3290   135.2680 c6         1 KWC       0.142300
     10 CAN        143.4800   149.0420   137.4960 c6         1 KWC       0.142300
     11 CAO        142.9410   147.6720   137.8810 c6         1 KWC       0.171800
     12 CAQ        138.3480   143.2320   138.9880 ca         1 KWC      -0.079000
     13 CAR        137.5830   142.8840   140.0880 ca         1 KWC      -0.178000
     14 NAJ        142.4500   146.9710   136.7010 nh         1 KWC      -0.752300
     15 NAM        144.4550   149.0070   136.4220 n7         1 KWC      -0.787200
     16 NAP        140.9330   145.7310   137.9960 nc         1 KWC      -0.736000
     17 SAH        141.2110   144.8140   135.6170 ss         1 KWC      -0.245300
     18 FAA        137.0000   143.2710   142.3300 f          1 KWC      -0.143900
     19 HAC        138.7550   145.1820   142.2910 ha         1 KWC       0.149500
     20 HAD        140.1110   145.7870   140.3240 ha         1 KWC       0.144000
     21 HAG        139.5390   143.1750   136.3430 h4         1 KWC       0.178000
     22 HAK        144.1920   146.2430   135.7680 h1         1 KWC       0.054200
     23 HAM        144.6580   148.2510   134.4880 h1         1 KWC       0.064950
     24 HAN        143.0870   148.9430   134.8690 h1         1 KWC       0.064950
     25 HAP        142.6490   149.6800   137.1820 h1         1 KWC       0.064950
     26 HAO        143.9250   149.5060   138.3780 h1         1 KWC       0.064950
     27 HAQ        143.7290   147.0820   138.3670 h1         1 KWC       0.054200
     28 HAR        142.1260   147.7810   138.5940 h1         1 KWC       0.054200
     29 HAS        138.2120   142.6720   138.0720 ha         1 KWC       0.144000
     30 HAT        136.8710   142.0710   140.0310 ha         1 KWC       0.149500
     31 HAU        145.2870   148.5200   136.7350 hn         1 KWC       0.351800
     32 HAL        142.8370   146.5710   134.6820 h1         1 KWC       0.054200
@<TRIPOS>BOND
     1     1     2 ar  
     2     1    13 ar  
     3     1    18 1   
     4     2     3 ar  
     5     2    19 1   
     6     3     4 ar  
     7     3    20 1   
     8     4     5 1   
     9     4    12 ar  
    10     5     6 2   
    11     5    16 1   
    12     6    17 1   
    13     6    21 1   
    14     7    14 1   
    15     7    16 2   
    16     7    17 1   
    17     8     9 1   
    18     8    14 1   
    19     8    22 1   
    20     8    32 1   
    21     9    15 1   
    22     9    23 1   
    23     9    24 1   
    24    10    11 1   
    25    10    15 1   
    26    10    25 1   
    27    10    26 1   
    28    11    14 1   
    29    11    27 1   
    30    11    28 1   
    31    12    13 ar  
    32    12    29 1   
    33    13    30 1   
    34    15    31 1   
@<TRIPOS>SUBSTRUCTURE
     1 KWC         1 TEMP              0 ****  ****    0 ROOT
