@<TRIPOS>MOLECULE
KWC
   32    34     1     0     0
SMALL
No Charge or Current Charge


@<TRIPOS>ATOM
      1 CAB        137.5980   143.5280   141.2660 ca         1 KWC       0.176000
      2 CAC        138.7190   144.3370   141.4960 ca         1 KWC      -0.160000
      3 CAD        139.5580   144.6940   140.4260 ca         1 KWC      -0.061000
      4 CAE        139.2940   144.2310   139.1160 ca         1 KWC      -0.135500
      5 CAF        140.1610   144.6440   138.0000 cc         1 KWC       0.391500
      6 CAG        140.2290   143.8780   136.8590 cd         1 KWC      -0.280000
      7 CAI        141.6280   145.8530   136.9300 cd         1 KWC       0.712300
      8 CAK        143.4530   146.9180   135.5470 c6         1 KWC       0.171800
      9 CAL        143.9200   148.3540   135.1430 c6         1 KWC       0.142300
     10 CAN        143.4270   149.2090   137.3840 c6         1 KWC       0.142300
     11 CAO        142.9480   147.7990   137.8560 c6         1 KWC       0.171800
     12 CAQ        138.1440   143.4350   138.8980 ca         1 KWC      -0.061000
     13 CAR        137.3060   143.0810   139.9710 ca         1 KWC      -0.160000
     14 NAJ        142.5190   146.9140   136.7200 nh         1 KWC      -0.752300
     15 NAM        144.4440   149.1400   136.2960 n7         1 KWC      -0.842400
     16 NAP        140.9550   145.7590   138.0600 nc         1 KWC      -0.736000
     17 SAH        141.3540   144.5970   135.7190 ss         1 KWC      -0.100400
     18 FAA        136.7910   143.1880   142.2950 f          1 KWC      -0.179000
     19 HAC        138.9350   144.6890   142.5020 ha         1 KWC       0.131500
     20 HAD        140.4220   145.3260   140.6210 ha         1 KWC       0.126000
     21 HAG        139.7160   142.9550   136.6260 h4         1 KWC       0.160000
     22 HAK        144.3390   146.3110   135.7830 h1         1 KWC       0.054200
     23 HAM        144.6920   148.2780   134.3620 h1         1 KWC       0.064950
     24 HAN        143.0660   148.8880   134.7000 h1         1 KWC       0.064950
     25 HAP        142.5520   149.7740   137.0280 h1         1 KWC       0.064950
     26 HAO        143.8370   149.7580   138.2450 h1         1 KWC       0.064950
     27 HAQ        143.7660   147.3130   138.4080 h1         1 KWC       0.054200
     28 HAR        142.1280   147.9510   138.5740 h1         1 KWC       0.054200
     29 HAS        137.8820   143.0940   137.8990 ha         1 KWC       0.126000
     30 HAT        136.4270   142.4650   139.7980 ha         1 KWC       0.131500
     31 HAU        145.2730   148.6550   136.6640 hn         1 KWC       0.407000
     32 HAL        142.9820   146.4670   134.6630 h1         1 KWC       0.054200
@<TRIPOS>BOND
     1     1     2 ar  
     2     1    13 ar  
     3     1    18 1   
     4     2     3 ar  
     5     2    19 1   
     6     3     4 ar  
     7     3    20 1   
     8     4     5 1   
     9     4    12 ar  
    10     5     6 2   
    11     5    16 1   
    12     6    17 1   
    13     6    21 1   
    14     7    14 1   
    15     7    16 2   
    16     7    17 1   
    17     8     9 1   
    18     8    14 1   
    19     8    22 1   
    20     8    32 1   
    21     9    15 1   
    22     9    23 1   
    23     9    24 1   
    24    10    11 1   
    25    10    15 1   
    26    10    25 1   
    27    10    26 1   
    28    11    14 1   
    29    11    27 1   
    30    11    28 1   
    31    12    13 ar  
    32    12    29 1   
    33    13    30 1   
    34    15    31 1   
@<TRIPOS>SUBSTRUCTURE
     1 KWC         1 TEMP              0 ****  ****    0 ROOT
