@<TRIPOS>MOLECULE
KWD
   26    27     1     0     0
SMALL
No Charge or Current Charge


@<TRIPOS>ATOM
      1 C10         -0.4470     1.6960     0.3460 cc         1 KWD      -0.299000
      2 C12         -2.2830     0.1240     0.2870 cc         1 KWD       0.529300
      3 C14         -4.7270    -0.2300     0.4390 c          1 KWD       0.610100
      4 C16         -5.7650    -1.3420     0.3700 c3         1 KWD      -0.093300
      5 C17         -6.4410    -1.3460    -0.9240 c1         1 KWD       0.301900
      6 C2           3.9730    -1.0170    -0.3840 ca         1 KWD       0.123000
      7 C3           2.9020    -1.9230    -0.4170 ca         1 KWD      -0.104000
      8 C4           1.5830    -1.4670    -0.2460 ca         1 KWD      -0.071000
      9 C5           1.3110    -0.0940    -0.0400 ca         1 KWD      -0.106500
     10 C6           2.4010     0.8080    -0.0090 ca         1 KWD      -0.086000
     11 C7           3.7200     0.3530    -0.1790 ca         1 KWD       0.114000
     12 C9          -0.0820     0.3840     0.1400 cd         1 KWD       0.367500
     13 N13         -3.4230    -0.6350     0.2790 ns         1 KWD      -0.471400
     14 N18         -6.9810    -1.3800    -1.9540 n1         1 KWD      -0.417000
     15 N19         -1.1430    -0.5120     0.1070 nd         1 KWD      -0.703000
     16 O15         -5.0440     0.9350     0.6210 o          1 KWD      -0.543100
     17 S11         -2.1700     1.8570     0.5100 ss         1 KWD       0.090600
     18 Cl8          5.0400     1.5230    -0.1320 cl         1 KWD      -0.173000
     19 H1           0.1710     2.5790     0.4130 h4         1 KWD       0.165000
     20 H2          -5.2950    -2.3210     0.5030 hc         1 KWD       0.095700
     21 H3          -6.5220    -1.1730     1.1420 hc         1 KWD       0.095700
     22 H4           3.0940    -2.9810    -0.5750 ha         1 KWD       0.133000
     23 H5           0.7730    -2.1930    -0.2770 ha         1 KWD       0.140000
     24 H6           2.2400     1.8710     0.1470 ha         1 KWD       0.130000
     25 H7          -3.2860    -1.6230     0.1340 hn         1 KWD       0.343500
     26 Cl1          5.6160    -1.6220    -0.6020 cl         1 KWD      -0.170000
@<TRIPOS>BOND
     1     1    12 2   
     2     1    17 1   
     3     1    19 1   
     4     2    13 1   
     5     2    15 2   
     6     2    17 1   
     7     3     4 1   
     8     3    13 1   
     9     3    16 2   
    10     4     5 1   
    11     4    20 1   
    12     4    21 1   
    13     5    14 3   
    14     6     7 ar  
    15     6    11 ar  
    16     6    26 1   
    17     7     8 ar  
    18     7    22 1   
    19     8     9 ar  
    20     8    23 1   
    21     9    10 ar  
    22     9    12 1   
    23    10    11 ar  
    24    10    24 1   
    25    11    18 1   
    26    12    15 1   
    27    13    25 1   
@<TRIPOS>SUBSTRUCTURE
     1 KWD         1 TEMP              0 ****  ****    0 ROOT
