@<TRIPOS>MOLECULE
KWD
   26    27     1     0     0
SMALL
bcc


@<TRIPOS>ATOM
      1 C10         -0.5070     1.6040     0.0130 cc         1 KWD      -0.237400
      2 C12         -2.2040    -0.0920    -0.0120 cc         1 KWD       0.529300
      3 C14         -4.6030    -0.3490    -0.0260 c          1 KWD       0.677100
      4 C16         -5.6880    -1.4070    -0.0380 c3         1 KWD      -0.093300
      5 C17         -7.0050    -0.8030    -0.0430 c1         1 KWD       0.212700
      6 C2           4.0240    -0.9350     0.0010 ca         1 KWD       0.031400
      7 C3           3.0020    -1.8710     0.0090 ca         1 KWD      -0.122000
      8 C4           1.6810    -1.4610     0.0090 ca         1 KWD      -0.089000
      9 C5           1.3530    -0.1050     0.0000 ca         1 KWD      -0.106500
     10 C6           2.3870     0.8290    -0.0090 ca         1 KWD      -0.104000
     11 C7           3.7080     0.4200    -0.0090 ca         1 KWD       0.022400
     12 C9          -0.0500     0.3220     0.0000 cd         1 KWD       0.432800
     13 N13         -3.3460    -0.8570    -0.0250 ns         1 KWD      -0.538400
     14 N18         -8.0580    -0.3420    -0.0470 n1         1 KWD      -0.327800
     15 N19         -1.0330    -0.6320    -0.0130 nd         1 KWD      -0.703000
     16 O15         -4.8290     0.8400    -0.0180 o          1 KWD      -0.543100
     17 S11         -2.2240     1.6370     0.0060 ss         1 KWD      -0.054300
     18 CL8          4.9550     1.6090    -0.0210 cl         1 KWD      -0.081400
     19 H1           0.0560     2.5240     0.0260 h4         1 KWD       0.183000
     20 H2          -5.5830    -2.0470    -0.9190 hc         1 KWD       0.095700
     21 H3          -5.5950    -2.0560     0.8370 hc         1 KWD       0.095700
     22 H4           3.2410    -2.9250     0.0160 ha         1 KWD       0.151000
     23 H5           0.8980    -2.2060     0.0160 ha         1 KWD       0.158000
     24 H6           2.1750     1.8900    -0.0190 ha         1 KWD       0.148000
     25 H7          -3.2030    -1.8580    -0.0350 hn         1 KWD       0.343500
     26 CL1          5.6630    -1.4580     0.0010 cl         1 KWD      -0.078400
@<TRIPOS>BOND
     1     1    12 2   
     2     1    17 1   
     3     1    19 1   
     4     2    13 1   
     5     2    15 2   
     6     2    17 1   
     7     3     4 1   
     8     3    13 1   
     9     3    16 2   
    10     4     5 1   
    11     4    20 1   
    12     4    21 1   
    13     5    14 3   
    14     6     7 ar  
    15     6    11 ar  
    16     6    26 1   
    17     7     8 ar  
    18     7    22 1   
    19     8     9 ar  
    20     8    23 1   
    21     9    10 ar  
    22     9    12 1   
    23    10    11 ar  
    24    10    24 1   
    25    11    18 1   
    26    12    15 1   
    27    13    25 1   
@<TRIPOS>SUBSTRUCTURE
     1 KWD         1 TEMP              0 ****  ****    0 ROOT
