@<TRIPOS>MOLECULE
KWE
   60    63     1     0     0
SMALL
No Charge or Current Charge


@<TRIPOS>ATOM
      1 C1         -15.9890    -8.6840   -13.5570 ca         1 KWE      -0.110000
      2 C2         -14.8610    -8.3820   -14.3380 ca         1 KWE      -0.108500
      3 C3         -16.4470   -10.0100   -13.4690 ca         1 KWE      -0.108500
      4 C7         -14.6480   -10.7350   -14.9510 ca         1 KWE      -0.082300
      5 C8          -2.5690   -15.7620   -16.3000 ca         1 KWE      -0.105500
      6 C9          -3.6420   -17.8520   -15.6720 ca         1 KWE      -0.105500
      7 C10        -13.9170   -11.8420   -15.7000 c3         1 KWE      -0.029100
      8 C11         -7.4020   -10.5970   -12.5800 ca         1 KWE      -0.114000
      9 C12         -3.6330   -15.4780   -17.1730 ca         1 KWE      -0.101000
     10 C13         -4.7070   -17.5680   -16.5450 ca         1 KWE      -0.101000
     11 C14        -12.7120   -12.3820   -14.9010 c3         1 KWE      -0.072400
     12 C15         -6.5790   -11.5390   -13.2200 ca         1 KWE      -0.108500
     13 C16         -8.5740   -10.1490   -13.2100 ca         1 KWE      -0.108500
     14 C19         -6.9290   -12.0360   -14.4870 ca         1 KWE      -0.109500
     15 C20         -8.9240   -10.6450   -14.4780 ca         1 KWE      -0.109500
     16 C22        -10.7200   -14.0040   -14.8490 c3         1 KWE       0.218800
     17 C24         -8.1090   -11.5970   -15.1240 ca         1 KWE      -0.080300
     18 N26         -6.9380   -15.3060   -17.5800 n          1 KWE      -0.390400
     19 C30         -6.9570   -13.9230   -17.5270 c          1 KWE       0.586200
     20 C31         -8.7890   -14.7610   -16.3810 cc         1 KWE       0.145800
     21 C32         -8.1650   -13.5850   -16.7470 cd         1 KWE      -0.325400
     22 C4         -14.1920    -9.4050   -15.0330 ca         1 KWE      -0.107000
     23 C5         -15.7780   -11.0330   -14.1640 ca         1 KWE      -0.107000
     24 C6          -2.5730   -16.9490   -15.5490 ca         1 KWE      -0.109000
     25 C17         -4.7070   -16.3800   -17.3020 ca         1 KWE      -0.098300
     26 C18        -11.9380   -13.4930   -15.6440 c3         1 KWE      -0.106400
     27 O25         -6.1400   -13.1650   -18.0270 o          1 KWE      -0.494000
     28 N27         -9.9560   -14.9770   -15.6440 nu         1 KWE      -0.784200
     29 C28         -7.9970   -15.9080   -16.9230 c          1 KWE       0.546200
     30 C29         -8.5100   -12.1290   -16.4990 c3         1 KWE       0.052100
     31 H1         -16.5070    -7.8930   -13.0190 ha         1 KWE       0.113000
     32 H2         -14.5050    -7.3560   -14.4060 ha         1 KWE       0.113000
     33 H3         -17.3190   -10.2450   -12.8630 ha         1 KWE       0.113000
     34 H5          -3.6470   -18.7710   -15.0900 ha         1 KWE       0.112500
     35 H6         -14.6040   -12.6690   -15.9200 hc         1 KWE       0.048200
     36 H7         -13.5680   -11.4690   -16.6700 hc         1 KWE       0.048200
     37 H8          -7.1300   -10.2130   -11.5990 ha         1 KWE       0.112000
     38 H9          -3.6230   -14.5540   -17.7480 ha         1 KWE       0.110000
     39 H10         -5.5320   -18.2720   -16.6310 ha         1 KWE       0.110000
     40 H11        -12.0300   -11.5520   -14.6800 hc         1 KWE       0.045700
     41 H12        -13.0660   -12.7690   -13.9370 hc         1 KWE       0.045700
     42 H13         -5.6690   -11.8840   -12.7340 ha         1 KWE       0.112000
     43 H14         -9.2100    -9.4170   -12.7180 ha         1 KWE       0.112000
     44 H15         -6.2800   -12.7610   -14.9690 ha         1 KWE       0.111000
     45 H16         -9.8330   -10.2880   -14.9580 ha         1 KWE       0.111000
     46 H19        -10.0860   -13.1620   -14.5500 h1         1 KWE       0.064700
     47 H20        -11.0740   -14.4770   -13.9230 h1         1 KWE       0.064700
     48 H22        -13.3190    -9.1630   -15.6350 ha         1 KWE       0.110000
     49 H23        -16.1370   -12.0570   -14.0880 ha         1 KWE       0.110000
     50 H24         -1.7500   -17.1690   -14.8720 ha         1 KWE       0.113000
     51 H25        -12.6120   -14.3330   -15.8470 hc         1 KWE       0.049700
     52 H26        -11.6060   -13.1110   -16.6170 hc         1 KWE       0.049700
     53 H27         -8.0370   -11.4990   -17.2630 hc         1 KWE       0.060700
     54 H28         -9.5830   -11.9820   -16.6570 hc         1 KWE       0.060700
     55 H21        -10.2180   -15.9630   -15.5340 hn         1 KWE       0.511000
     56 O23         -8.2100   -17.1110   -16.8250 o          1 KWE      -0.506000
     57 C21         -5.8650   -16.0680   -18.2400 c3         1 KWE       0.161300
     58 H4          -1.7420   -15.0610   -16.2040 ha         1 KWE       0.112500
     59 H17         -6.2780   -17.0050   -18.6360 h1         1 KWE       0.074700
     60 H18         -5.4940   -15.4970   -19.1020 h1         1 KWE       0.074700
@<TRIPOS>BOND
     1     1     2 ar  
     2     1     3 ar  
     3     1    31 1   
     4     2    22 ar  
     5     2    32 1   
     6     3    23 ar  
     7     3    33 1   
     8     4     7 1   
     9     4    22 ar  
    10     4    23 ar  
    11     5     9 ar  
    12     5    24 ar  
    13     5    58 1   
    14     6    10 ar  
    15     6    24 ar  
    16     6    34 1   
    17     7    11 1   
    18     7    35 1   
    19     7    36 1   
    20     8    12 ar  
    21     8    13 ar  
    22     8    37 1   
    23     9    25 ar  
    24     9    38 1   
    25    10    25 ar  
    26    10    39 1   
    27    11    26 1   
    28    11    40 1   
    29    11    41 1   
    30    12    14 ar  
    31    12    42 1   
    32    13    15 ar  
    33    13    43 1   
    34    14    17 ar  
    35    14    44 1   
    36    15    17 ar  
    37    15    45 1   
    38    16    26 1   
    39    16    28 1   
    40    16    46 1   
    41    16    47 1   
    42    17    30 1   
    43    18    19 1   
    44    18    29 1   
    45    18    57 1   
    46    19    21 1   
    47    19    27 2   
    48    20    21 2   
    49    20    28 1   
    50    20    29 1   
    51    21    30 1   
    52    22    48 1   
    53    23    49 1   
    54    24    50 1   
    55    25    57 1   
    56    26    51 1   
    57    26    52 1   
    58    28    55 1   
    59    29    56 2   
    60    30    53 1   
    61    30    54 1   
    62    57    59 1   
    63    57    60 1   
@<TRIPOS>SUBSTRUCTURE
     1 KWE         1 TEMP              0 ****  ****    0 ROOT
