@<TRIPOS>MOLECULE
KWE
   60    63     1     0     0
SMALL
abcg2


@<TRIPOS>ATOM
      1 C1         -16.0070    -8.6490   -13.9830 ca         1 KWE      -0.110000
      2 C2         -14.8890    -8.4220   -14.7810 ca         1 KWE      -0.108500
      3 C3         -16.4230    -9.9550   -13.7430 ca         1 KWE      -0.108500
      4 C7         -14.6040   -10.8100   -15.1010 ca         1 KWE      -0.082300
      5 C8          -3.5220   -16.0870   -15.3890 ca         1 KWE      -0.105500
      6 C9          -2.7770   -17.5340   -17.1590 ca         1 KWE      -0.105500
      7 C10        -13.8210   -11.9670   -15.6620 c3         1 KWE      -0.029100
      8 C11         -7.0230   -10.3690   -12.7520 ca         1 KWE      -0.114000
      9 C12         -4.7220   -15.8780   -16.0650 ca         1 KWE      -0.101000
     10 C13         -3.9740   -17.3220   -17.8320 ca         1 KWE      -0.101000
     11 C14        -12.6410   -12.3640   -14.7650 c3         1 KWE      -0.072400
     12 C15         -6.3590   -11.4330   -13.3560 ca         1 KWE      -0.108500
     13 C16         -8.2010    -9.8890   -13.3170 ca         1 KWE      -0.108500
     14 C19         -6.8690   -12.0110   -14.5140 ca         1 KWE      -0.109500
     15 C20         -8.7060   -10.4690   -14.4760 ca         1 KWE      -0.109500
     16 C22        -10.6490   -13.8860   -14.4490 c3         1 KWE       0.218800
     17 C24         -8.0460   -11.5350   -15.0910 ca         1 KWE      -0.080300
     18 N26         -7.2250   -15.4740   -17.3950 n          1 KWE      -0.390400
     19 C30         -7.2860   -14.0530   -17.4660 c          1 KWE       0.586200
     20 C31         -8.8560   -14.6990   -15.9580 cc         1 KWE       0.145800
     21 C32         -8.3260   -13.5910   -16.5600 cd         1 KWE      -0.325400
     22 C4         -14.1970    -9.4940   -15.3340 ca         1 KWE      -0.107000
     23 C5         -15.7260   -11.0240   -14.2980 ca         1 KWE      -0.107000
     24 C6          -2.5460   -16.9150   -15.9320 ca         1 KWE      -0.109000
     25 C17         -4.9580   -16.4930   -17.2910 ca         1 KWE      -0.098300
     26 C18        -11.8400   -13.5290   -15.3360 c3         1 KWE      -0.106400
     27 O25         -6.5480   -13.4070   -18.1890 o          1 KWE      -0.494000
     28 N27         -9.7880   -14.9050   -15.0310 nu         1 KWE      -0.784200
     29 C28         -8.1400   -15.9270   -16.4920 c          1 KWE       0.546200
     30 C29         -8.6050   -12.1330   -16.3690 c3         1 KWE       0.052100
     31 H1         -16.5500    -7.8160   -13.5540 ha         1 KWE       0.113000
     32 H2         -14.5590    -7.4090   -14.9770 ha         1 KWE       0.113000
     33 H3         -17.2940   -10.1430   -13.1260 ha         1 KWE       0.113000
     34 H5          -2.0250   -18.1820   -17.5910 ha         1 KWE       0.112500
     35 H6         -14.4790   -12.8310   -15.7870 hc         1 KWE       0.048200
     36 H7         -13.4380   -11.7070   -16.6520 hc         1 KWE       0.048200
     37 H8          -6.6300    -9.9230   -11.8470 ha         1 KWE       0.112000
     38 H9          -5.4690   -15.2310   -15.6250 ha         1 KWE       0.110000
     39 H10         -4.1490   -17.8070   -18.7860 ha         1 KWE       0.110000
     40 H11        -11.9830   -11.4980   -14.6370 hc         1 KWE       0.045700
     41 H12        -13.0160   -12.6230   -13.7700 hc         1 KWE       0.045700
     42 H13         -5.4440   -11.8180   -12.9220 ha         1 KWE       0.112000
     43 H14         -8.7320    -9.0680   -12.8520 ha         1 KWE       0.112000
     44 H15         -6.3490   -12.8460   -14.9670 ha         1 KWE       0.111000
     45 H16         -9.6300   -10.0990   -14.9050 ha         1 KWE       0.111000
     46 H19        -10.0490   -12.9990   -14.2480 h1         1 KWE       0.064700
     47 H20        -10.9950   -14.2660   -13.4880 h1         1 KWE       0.064700
     48 H22        -13.3290    -9.3100   -15.9570 ha         1 KWE       0.110000
     49 H23        -16.0560   -12.0390   -14.1090 ha         1 KWE       0.110000
     50 H24         -1.6140   -17.0780   -15.4060 ha         1 KWE       0.113000
     51 H25        -12.4810   -14.4080   -15.4500 hc         1 KWE       0.049700
     52 H26        -11.4780   -13.2700   -16.3350 hc         1 KWE       0.049700
     53 H27         -8.1700   -11.6020   -17.2200 hc         1 KWE       0.060700
     54 H28         -9.6770   -11.9330   -16.4090 hc         1 KWE       0.060700
     55 H21         -9.9940   -15.8730   -14.8260 hn         1 KWE       0.511000
     56 O23         -8.3470   -17.0770   -16.1610 o          1 KWE      -0.506000
     57 C21         -6.2440   -16.2910   -18.0700 c3         1 KWE       0.161300
     58 H4          -3.3530   -15.6010   -14.4370 ha         1 KWE       0.112500
     59 H17         -6.7040   -17.2570   -18.2820 h1         1 KWE       0.074700
     60 H18         -6.0250   -15.8180   -19.0280 h1         1 KWE       0.074700
@<TRIPOS>BOND
     1     1     2 ar  
     2     1     3 ar  
     3     1    31 1   
     4     2    22 ar  
     5     2    32 1   
     6     3    23 ar  
     7     3    33 1   
     8     4     7 1   
     9     4    22 ar  
    10     4    23 ar  
    11     5     9 ar  
    12     5    24 ar  
    13     5    58 1   
    14     6    10 ar  
    15     6    24 ar  
    16     6    34 1   
    17     7    11 1   
    18     7    35 1   
    19     7    36 1   
    20     8    12 ar  
    21     8    13 ar  
    22     8    37 1   
    23     9    25 ar  
    24     9    38 1   
    25    10    25 ar  
    26    10    39 1   
    27    11    26 1   
    28    11    40 1   
    29    11    41 1   
    30    12    14 ar  
    31    12    42 1   
    32    13    15 ar  
    33    13    43 1   
    34    14    17 ar  
    35    14    44 1   
    36    15    17 ar  
    37    15    45 1   
    38    16    26 1   
    39    16    28 1   
    40    16    46 1   
    41    16    47 1   
    42    17    30 1   
    43    18    19 1   
    44    18    29 1   
    45    18    57 1   
    46    19    21 1   
    47    19    27 2   
    48    20    21 2   
    49    20    28 1   
    50    20    29 1   
    51    21    30 1   
    52    22    48 1   
    53    23    49 1   
    54    24    50 1   
    55    25    57 1   
    56    26    51 1   
    57    26    52 1   
    58    28    55 1   
    59    29    56 2   
    60    30    53 1   
    61    30    54 1   
    62    57    59 1   
    63    57    60 1   
@<TRIPOS>SUBSTRUCTURE
     1 KWE         1 TEMP              0 ****  ****    0 ROOT
