@<TRIPOS>MOLECULE
KWG
   34    36     1     0     0
SMALL
No Charge or Current Charge


@<TRIPOS>ATOM
      1 C22         -3.7370    -0.9300    -0.0570 ca         1 KWG      -0.096500
      2 C20         -6.0910    -0.3160     0.0490 ca         1 KWG      -0.122000
      3 C11          0.5690    -1.6190    -1.0990 cc         1 KWG      -0.161000
      4 C12          0.3220    -2.8830    -0.6300 cd         1 KWG      -0.205000
      5 C13          0.7970    -2.9890     0.7010 cd         1 KWG      -0.205000
      6 C17         -3.3750     0.4280     0.0150 ca         1 KWG       0.060000
      7 C04          2.9480     0.7260    -0.0570 ca         1 KWG      -0.121600
      8 C05          3.3180     2.0870    -0.0360 ca         1 KWG      -0.073000
      9 C06          2.3390     3.0920    -0.0270 ca         1 KWG      -0.139000
     10 C07          0.9800     2.7470    -0.0330 ca         1 KWG      -0.109000
     11 C08          0.5900     1.3950    -0.0440 ca         1 KWG      -0.016000
     12 C09          1.5750     0.3710    -0.0580 ca         1 KWG       0.029800
     13 C14          1.3460    -1.7920     1.0820 cc         1 KWG      -0.161000
     14 C15         -0.8160     1.0900    -0.0210 cg         1 KWG      -0.043000
     15 C16         -2.0010     0.8000    -0.0030 ch         1 KWG      -0.167000
     16 C18         -4.3770     1.4130     0.1030 ca         1 KWG      -0.096500
     17 C19         -5.7330     1.0410     0.1200 ca         1 KWG      -0.117500
     18 C21         -5.0930    -1.3020    -0.0400 ca         1 KWG      -0.117500
     19 N10          1.1990    -0.9790    -0.0370 na         1 KWG       0.146200
     20 O01          4.8430    -0.3220     0.8330 o          1 KWG      -0.697500
     21 O03          4.1020    -1.0590    -1.0530 o          1 KWG      -0.697500
     22 H221        -2.9680    -1.6970    -0.1260 ha         1 KWG       0.125500
     23 H201        -7.1400    -0.6030     0.0620 ha         1 KWG       0.101000
     24 H111         0.3590    -1.1390    -2.0470 h4         1 KWG       0.144000
     25 H121        -0.1650    -3.6750    -1.1910 ha         1 KWG       0.110000
     26 H131         0.7320    -3.8750     1.3250 ha         1 KWG       0.110000
     27 H051         4.3710     2.3620    -0.0340 ha         1 KWG       0.127000
     28 H061         2.6350     4.1380    -0.0150 ha         1 KWG       0.096000
     29 H071         0.2290     3.5340    -0.0210 ha         1 KWG       0.099000
     30 H141         1.8020    -1.4610     2.0060 h4         1 KWG       0.144000
     31 H181        -4.1050     2.4650     0.1590 ha         1 KWG       0.125500
     32 H191        -6.5050     1.8050     0.1890 ha         1 KWG       0.105000
     33 H211        -5.3700    -2.3530    -0.0950 ha         1 KWG       0.105000
     34 C02          4.0310    -0.3200    -0.0820 c          1 KWG       0.714600
@<TRIPOS>BOND
     1     1     6 ar  
     2     1    18 ar  
     3     1    22 1   
     4     2    17 ar  
     5     2    18 ar  
     6     2    23 1   
     7     3     4 2   
     8     3    19 1   
     9     3    24 1   
    10     4     5 1   
    11     4    25 1   
    12     5    13 2   
    13     5    26 1   
    14     6    15 1   
    15     6    16 ar  
    16     7     8 ar  
    17     7    12 ar  
    18     7    34 1   
    19     8     9 ar  
    20     8    27 1   
    21     9    10 ar  
    22     9    28 1   
    23    10    11 ar  
    24    10    29 1   
    25    11    12 ar  
    26    11    14 1   
    27    12    19 1   
    28    13    19 1   
    29    13    30 1   
    30    14    15 3   
    31    16    17 ar  
    32    16    31 1   
    33    17    32 1   
    34    18    33 1   
    35    20    34 1   
    36    21    34 1   
@<TRIPOS>SUBSTRUCTURE
     1 KWG         1 TEMP              0 ****  ****    0 ROOT
