@<TRIPOS>MOLECULE
KWG
   34    36     1     0     0
SMALL
bcc


@<TRIPOS>ATOM
      1 C22         -3.6670    -0.9170    -0.0120 ca         1 KWG      -0.114500
      2 C20         -6.0080    -0.3570     0.0130 ca         1 KWG      -0.140000
      3 C11          0.3920    -1.5570    -0.9880 cc         1 KWG      -0.128300
      4 C12          0.1840    -2.8510    -0.5900 cd         1 KWG      -0.223000
      5 C13          0.8200    -3.0100     0.6700 cd         1 KWG      -0.223000
      6 C17         -3.3380     0.4430     0.0100 ca         1 KWG       0.060000
      7 C04          2.9110     0.7200    -0.0210 ca         1 KWG      -0.121600
      8 C05          3.2890     2.0590     0.0410 ca         1 KWG      -0.091000
      9 C06          2.3470     3.0760     0.0090 ca         1 KWG      -0.157000
     10 C07          0.9980     2.7690    -0.0350 ca         1 KWG      -0.127000
     11 C08          0.5860     1.4350    -0.0400 ca         1 KWG      -0.016000
     12 C09          1.5530     0.4160    -0.0510 ca         1 KWG       0.029800
     13 C14          1.3940    -1.8080     0.9870 cc         1 KWG      -0.128300
     14 C15         -0.7980     1.1170    -0.0120 cg         1 KWG      -0.043000
     15 C16         -1.9710     0.8350     0.0040 ch         1 KWG      -0.167000
     16 C18         -4.3600     1.3970     0.0320 ca         1 KWG      -0.114500
     17 C19         -5.6860     0.9950     0.0330 ca         1 KWG      -0.135500
     18 C21         -4.9960    -1.3100    -0.0090 ca         1 KWG      -0.135500
     19 N10          1.1240    -0.9280    -0.0230 na         1 KWG       0.044800
     20 O01          4.9120    -0.2590     0.7270 o          1 KWG      -0.802800
     21 O03          3.8790    -1.1690    -1.0340 o          1 KWG      -0.802800
     22 H221        -2.8750    -1.6550    -0.0320 ha         1 KWG       0.143500
     23 H201        -7.0450    -0.6660     0.0150 ha         1 KWG       0.119000
     24 H111         0.0830    -1.0390    -1.8800 h4         1 KWG       0.162000
     25 H121        -0.3620    -3.6000    -1.1410 ha         1 KWG       0.128000
     26 H131         0.8520    -3.9020     1.2760 ha         1 KWG       0.128000
     27 H051         4.3420     2.3060     0.0910 ha         1 KWG       0.145000
     28 H061         2.6630     4.1110     0.0280 ha         1 KWG       0.114000
     29 H071         0.2540     3.5540    -0.0440 ha         1 KWG       0.117000
     30 H141         1.9580    -1.5010     1.8530 h4         1 KWG       0.162000
     31 H181        -4.1110     2.4500     0.0480 ha         1 KWG       0.143500
     32 H191        -6.4710     1.7390     0.0500 ha         1 KWG       0.123000
     33 H211        -5.2410    -2.3640    -0.0250 ha         1 KWG       0.123000
     34 C02          3.9970    -0.3480    -0.1110 c          1 KWG       0.925200
@<TRIPOS>BOND
     1     1     6 ar  
     2     1    18 ar  
     3     1    22 1   
     4     2    17 ar  
     5     2    18 ar  
     6     2    23 1   
     7     3     4 2   
     8     3    19 1   
     9     3    24 1   
    10     4     5 1   
    11     4    25 1   
    12     5    13 2   
    13     5    26 1   
    14     6    15 1   
    15     6    16 ar  
    16     7     8 ar  
    17     7    12 ar  
    18     7    34 1   
    19     8     9 ar  
    20     8    27 1   
    21     9    10 ar  
    22     9    28 1   
    23    10    11 ar  
    24    10    29 1   
    25    11    12 ar  
    26    11    14 1   
    27    12    19 1   
    28    13    19 1   
    29    13    30 1   
    30    14    15 3   
    31    16    17 ar  
    32    16    31 1   
    33    17    32 1   
    34    18    33 1   
    35    20    34 1   
    36    21    34 1   
@<TRIPOS>SUBSTRUCTURE
     1 KWG         1 TEMP              0 ****  ****    0 ROOT
