@<TRIPOS>MOLECULE
KWH
   34    36     1     0     0
SMALL
bcc


@<TRIPOS>ATOM
      1 CAA          4.8570     1.8880    -0.6510 c3         1 KWH      -0.089100
      2 CAF          4.0870     0.7500     0.0030 c3         1 KWH      -0.077400
      3 CAI          2.5850     0.8630    -0.2320 c3         1 KWH      -0.074400
      4 CAP          1.7670    -0.2170     0.4780 c6         1 KWH       0.240700
      5 CAM          0.2980    -0.0380     0.2680 cc         1 KWH      -0.066300
      6 NAK         -0.3720     1.1470     0.4190 na         1 KWH      -0.170400
      7 CAN         -1.7000     0.9470     0.1650 ca         1 KWH      -0.042200
      8 CAD         -2.7690     1.8400     0.1960 ca         1 KWH      -0.149000
      9 CAB         -4.0250     1.3450    -0.1050 ca         1 KWH      -0.111000
     10 CAC         -4.2160    -0.0070    -0.4330 ca         1 KWH      -0.161000
     11 CAE         -3.1520    -0.8890    -0.4650 ca         1 KWH      -0.078000
     12 CAO         -1.8700    -0.4190    -0.1630 ca         1 KWH      -0.088800
     13 CAL         -0.5760    -1.0230    -0.0870 cd         1 KWH      -0.124400
     14 CAH         -0.1380    -2.4380    -0.2660 c6         1 KWH       0.002800
     15 CAG          1.2230    -2.5990     0.4020 c6         1 KWH       0.161800
     16 NAJ          2.1180    -1.5360    -0.0340 n7         1 KWH      -0.806200
     17 H1           4.7050     1.8960    -1.7320 hc         1 KWH       0.033033
     18 H2           4.5320     2.8570    -0.2670 hc         1 KWH       0.033033
     19 H3           5.9280     1.8020    -0.4680 hc         1 KWH       0.033033
     20 H4           4.4600    -0.2020    -0.3850 hc         1 KWH       0.038200
     21 H5           4.2850     0.7440     1.0800 hc         1 KWH       0.038200
     22 H6           2.2570     1.8480     0.1170 hc         1 KWH       0.048200
     23 H7           2.3690     0.8210    -1.3040 hc         1 KWH       0.048200
     24 H8           1.9690    -0.1340     1.5620 h1         1 KWH       0.025700
     25 H9           0.0370     2.0210     0.7030 hn         1 KWH       0.297700
     26 H10         -2.6240     2.8830     0.4480 ha         1 KWH       0.129000
     27 H11         -4.8760     2.0130    -0.0870 ha         1 KWH       0.126000
     28 H12         -5.2130    -0.3600    -0.6620 ha         1 KWH       0.127000
     29 H13         -3.3120    -1.9310    -0.7170 ha         1 KWH       0.130000
     30 H14         -0.8550    -3.1320     0.1800 hc         1 KWH       0.052200
     31 H15         -0.0650    -2.7020    -1.3260 hc         1 KWH       0.052200
     32 H16          1.0870    -2.6130     1.4950 h1         1 KWH       0.031700
     33 H17          1.6700    -3.5550     0.1240 h1         1 KWH       0.031700
     34 H18          3.0590    -1.7570     0.2610 hn         1 KWH       0.356800
@<TRIPOS>BOND
     1     1     2 1   
     2     1    17 1   
     3     1    18 1   
     4     1    19 1   
     5     2     3 1   
     6     2    20 1   
     7     2    21 1   
     8     3     4 1   
     9     3    22 1   
    10     3    23 1   
    11     4     5 1   
    12     4    16 1   
    13     4    24 1   
    14     5     6 1   
    15     5    13 2   
    16     6     7 1   
    17     6    25 1   
    18     7     8 ar  
    19     7    12 ar  
    20     8     9 ar  
    21     8    26 1   
    22     9    10 ar  
    23     9    27 1   
    24    10    11 ar  
    25    10    28 1   
    26    11    12 ar  
    27    11    29 1   
    28    12    13 1   
    29    13    14 1   
    30    14    15 1   
    31    14    30 1   
    32    14    31 1   
    33    15    16 1   
    34    15    32 1   
    35    15    33 1   
    36    16    34 1   
@<TRIPOS>SUBSTRUCTURE
     1 KWH         1 TEMP              0 ****  ****    0 ROOT
