@<TRIPOS>MOLECULE
KWH
   34    36     1     0     0
SMALL
No Charge or Current Charge


@<TRIPOS>ATOM
      1 CAA          4.9780     1.9170    -0.6210 c3         1 KWH      -0.089100
      2 CAF          4.1800     0.7690     0.0280 c3         1 KWH      -0.077400
      3 CAI          2.6560     0.8690    -0.2290 c3         1 KWH      -0.074400
      4 CAP          1.7960    -0.2300     0.4590 c6         1 KWH       0.240700
      5 CAM          0.3080     0.0070     0.2570 cc         1 KWH      -0.066300
      6 NAK         -0.4270     1.2050     0.3780 na         1 KWH      -0.220700
      7 CAN         -1.7690     0.9540     0.1420 ca         1 KWH      -0.042200
      8 CAD         -2.8500     1.8450     0.1500 ca         1 KWH      -0.131000
      9 CAB         -4.1350     1.3250    -0.1240 ca         1 KWH      -0.093000
     10 CAC         -4.3080    -0.0550    -0.3950 ca         1 KWH      -0.143000
     11 CAE         -3.1990    -0.9290    -0.3950 ca         1 KWH      -0.060000
     12 CAO         -1.9420    -0.3770    -0.1200 ca         1 KWH      -0.088800
     13 CAL         -0.6300    -0.9720    -0.0410 cd         1 KWH      -0.124400
     14 CAH         -0.2040    -2.4120    -0.2310 c6         1 KWH       0.002800
     15 CAG          1.2260    -2.6450     0.3340 c6         1 KWH       0.161800
     16 NAJ          2.1630    -1.5680    -0.0810 n7         1 KWH      -0.861400
     17 H1           4.8380     1.9210    -1.7080 hc         1 KWH       0.033033
     18 H2           4.6550     2.8880    -0.2250 hc         1 KWH       0.033033
     19 H3           6.0490     1.8030    -0.4130 hc         1 KWH       0.033033
     20 H4           4.5600    -0.1840    -0.3600 hc         1 KWH       0.038200
     21 H5           4.3660     0.7720     1.1090 hc         1 KWH       0.038200
     22 H6           2.3230     1.8540     0.1200 hc         1 KWH       0.048200
     23 H7           2.4750     0.8530    -1.3110 hc         1 KWH       0.048200
     24 H8           2.0150    -0.2140     1.5380 h1         1 KWH       0.025700
     25 H9          -0.0370     2.1130     0.6090 hn         1 KWH       0.348000
     26 H10         -2.7070     2.9030     0.3600 ha         1 KWH       0.111000
     27 H11         -4.9970     1.9890    -0.1260 ha         1 KWH       0.108000
     28 H12         -5.3020    -0.4440    -0.6040 ha         1 KWH       0.109000
     29 H13         -3.3170    -1.9900    -0.6020 ha         1 KWH       0.112000
     30 H14         -0.9100    -3.0970     0.2570 hc         1 KWH       0.052200
     31 H15         -0.2160    -2.6620    -1.3000 hc         1 KWH       0.052200
     32 H16          1.1830    -2.6820     1.4330 h1         1 KWH       0.031700
     33 H17          1.6010    -3.6180    -0.0160 h1         1 KWH       0.031700
     34 H18          3.1080    -1.7960     0.2470 hn         1 KWH       0.412000
@<TRIPOS>BOND
     1     1     2 1   
     2     1    17 1   
     3     1    18 1   
     4     1    19 1   
     5     2     3 1   
     6     2    20 1   
     7     2    21 1   
     8     3     4 1   
     9     3    22 1   
    10     3    23 1   
    11     4     5 1   
    12     4    16 1   
    13     4    24 1   
    14     5     6 1   
    15     5    13 2   
    16     6     7 1   
    17     6    25 1   
    18     7     8 ar  
    19     7    12 ar  
    20     8     9 ar  
    21     8    26 1   
    22     9    10 ar  
    23     9    27 1   
    24    10    11 ar  
    25    10    28 1   
    26    11    12 ar  
    27    11    29 1   
    28    12    13 1   
    29    13    14 1   
    30    14    15 1   
    31    14    30 1   
    32    14    31 1   
    33    15    16 1   
    34    15    32 1   
    35    15    33 1   
    36    16    34 1   
@<TRIPOS>SUBSTRUCTURE
     1 KWH         1 TEMP              0 ****  ****    0 ROOT
