@<TRIPOS>MOLECULE
KWJ
   46    49     1     0     0
SMALL
bcc


@<TRIPOS>ATOM
      1 C4          -4.6740    -0.7480     0.1260 c          1 KWJ       0.709500
      2 C14          4.3280    -1.3690     0.0330 ca         1 KWJ      -0.001000
      3 C5          -4.4220     0.7230    -0.1960 c6         1 KWJ       0.151500
      4 C6          -5.6530     1.5500     0.1300 c3         1 KWJ      -0.092100
      5 C11          0.1360     0.1510     0.2850 ca         1 KWJ       0.926900
      6 C8          -2.8180     3.2970    -0.6610 c1         1 KWJ      -0.185100
      7 C9          -2.6730     3.8320    -1.7270 c1         1 KWJ      -0.127500
      8 C10         -2.1150     0.4250     0.3800 ca         1 KWJ       0.708200
      9 C12          2.6420     0.3600     0.2370 ca         1 KWJ       0.241600
     10 C13          3.0010    -1.0020     0.1120 ca         1 KWJ      -0.199000
     11 N1          -3.5700    -1.5100     0.3480 n          1 KWJ      -0.355000
     12 N2          -3.2250     1.2020     0.5020 nh         1 KWJ      -0.752300
     13 C3          -3.7320    -2.9310     0.6040 c3         1 KWJ       0.185100
     14 N3          -0.9160     0.9650     0.4090 nb         1 KWJ      -0.814000
     15 C1          -3.5950    -4.3770    -1.6260 c1         1 KWJ      -0.116500
     16 C2          -3.6620    -3.7280    -0.6170 c1         1 KWJ      -0.184100
     17 O1          -5.7930    -1.2170     0.1420 o          1 KWJ      -0.601500
     18 N4           1.3370     0.8050     0.3370 nu         1 KWJ      -0.735300
     19 C15          5.3100    -0.3880     0.0720 ca         1 KWJ      -0.252600
     20 C16          6.7640    -0.4470     0.0370 c          1 KWJ       0.714100
     21 O2           7.5150    -1.4020    -0.1070 o          1 KWJ      -0.608500
     22 N5           7.1590     0.8550     0.1980 ns         1 KWJ      -0.497200
     23 N6           6.0840     1.7400     0.1240 na         1 KWJ      -0.114800
     24 C17          4.9510     0.9530     0.1680 ca         1 KWJ       0.015800
     25 C18          3.6280     1.3500     0.2670 ca         1 KWJ      -0.236000
     26 N7           0.0830    -1.1550     0.1110 nb         1 KWJ      -0.757000
     27 C19         -1.1350    -1.7030     0.0980 ca         1 KWJ       0.460200
     28 C20         -2.2850    -0.9690     0.2470 ca         1 KWJ      -0.254000
     29 H1           4.5930    -2.4150    -0.0520 ha         1 KWJ       0.152000
     30 H2          -4.2560     0.7740    -1.2840 h1         1 KWJ       0.068700
     31 H3          -5.8420     1.5840     1.2030 hc         1 KWJ       0.057700
     32 H4          -5.5520     2.5670    -0.2430 hc         1 KWJ       0.057700
     33 H5          -6.5210     1.1180    -0.3600 hc         1 KWJ       0.057700
     34 H6          -2.1790     2.8120     1.2790 h1         1 KWJ       0.083200
     35 H7          -3.8970     3.0710     1.1250 h1         1 KWJ       0.083200
     36 H8          -2.5340     4.3070    -2.6720 ha         1 KWJ       0.169500
     37 H9           2.2320    -1.7550     0.0830 ha         1 KWJ       0.175000
     38 H10         -2.9620    -3.2510     1.3090 h1         1 KWJ       0.082200
     39 H11         -4.6900    -3.0900     1.0960 h1         1 KWJ       0.082200
     40 H12         -3.5380    -4.9510    -2.5220 ha         1 KWJ       0.170500
     41 H13          1.2300     1.8030     0.4420 hn         1 KWJ       0.455800
     42 H14          3.3620     2.3960     0.3570 ha         1 KWJ       0.141000
     43 H15         -1.1650    -2.7790    -0.0310 h4         1 KWJ       0.036100
     44 H16          8.0400     1.1940    -0.1620 hn         1 KWJ       0.339500
     45 H17          6.1500     2.4880     0.8030 hn         1 KWJ       0.260700
     46 C7          -3.0320     2.6350     0.6260 c3         1 KWJ       0.299900
@<TRIPOS>BOND
     1     1     3 1   
     2     1    11 1   
     3     1    17 2   
     4     2    10 ar  
     5     2    19 ar  
     6     2    29 1   
     7     3     4 1   
     8     3    12 1   
     9     3    30 1   
    10     4    31 1   
    11     4    32 1   
    12     4    33 1   
    13     5    14 ar  
    14     5    18 1   
    15     5    26 ar  
    16     6     7 3   
    17     6    46 1   
    18     7    36 1   
    19     8    12 1   
    20     8    14 ar  
    21     8    28 ar  
    22     9    10 ar  
    23     9    18 1   
    24     9    25 ar  
    25    10    37 1   
    26    11    13 1   
    27    11    28 1   
    28    12    46 1   
    29    13    16 1   
    30    13    38 1   
    31    13    39 1   
    32    15    16 3   
    33    15    40 1   
    34    18    41 1   
    35    19    20 1   
    36    19    24 ar  
    37    20    21 2   
    38    20    22 1   
    39    22    23 1   
    40    22    44 1   
    41    23    24 1   
    42    23    45 1   
    43    24    25 ar  
    44    25    42 1   
    45    26    27 ar  
    46    27    28 ar  
    47    27    43 1   
    48    34    46 1   
    49    35    46 1   
@<TRIPOS>SUBSTRUCTURE
     1 KWJ         1 TEMP              0 ****  ****    0 ROOT
