@<TRIPOS>MOLECULE
KWJ
   46    49     1     0     0
SMALL
No Charge or Current Charge


@<TRIPOS>ATOM
      1 C4          -4.7530    -0.8070     0.0140 c          1 KWJ       0.567000
      2 C14          4.4730    -1.2700     0.9010 ca         1 KWJ       0.017000
      3 C5          -4.5310     0.7410    -0.1270 c6         1 KWJ       0.151500
      4 C6          -5.7930     1.5120     0.3840 c3         1 KWJ      -0.092100
      5 C11          0.1660     0.1550     0.3320 ca         1 KWJ       0.400900
      6 C8          -2.9930     3.4970    -0.5530 c1         1 KWJ      -0.185100
      7 C9          -2.9310     4.1050    -1.5990 c1         1 KWJ      -0.215000
      8 C10         -2.1100     0.4020     0.4030 ca         1 KWJ       0.379900
      9 C12          2.7240     0.3810     0.3790 ca         1 KWJ       0.380000
     10 C13          3.1160    -0.8820     0.8900 ca         1 KWJ      -0.181000
     11 N1          -3.5810    -1.5980     0.1090 n          1 KWJ      -0.195400
     12 N2          -3.2390     1.2620     0.4620 nh         1 KWJ      -0.752300
     13 C3          -3.7360    -3.0690     0.2500 c3         1 KWJ       0.185100
     14 N3          -0.8890     0.9670     0.4610 nb         1 KWJ      -0.288000
     15 C1          -3.6310    -4.3350    -2.1130 c1         1 KWJ      -0.204000
     16 C2          -3.6870    -3.7770    -1.0400 c1         1 KWJ      -0.184100
     17 O1          -5.8770    -1.3050     0.0370 o          1 KWJ      -0.526000
     18 N4           1.3940     0.8000     0.3710 nu         1 KWJ      -0.928900
     19 C15          5.4100    -0.3600     0.4000 ca         1 KWJ      -0.252600
     20 C16          6.8800    -0.4730     0.2730 c          1 KWJ       0.571600
     21 O2           7.5870    -1.4370     0.5200 o          1 KWJ      -0.533000
     22 N5           7.2790     0.7370    -0.2550 ns         1 KWJ      -0.430200
     23 N6           6.1570     1.5750    -0.5050 na         1 KWJ      -0.165100
     24 C17          5.0370     0.8730    -0.0930 ca         1 KWJ       0.015800
     25 C18          3.6990     1.2760    -0.1040 ca         1 KWJ      -0.218000
     26 N7           0.1350    -1.1660     0.1000 nb         1 KWJ      -0.231000
     27 C19         -1.0810    -1.7380     0.0480 ca         1 KWJ       0.131900
     28 C20         -2.2660    -0.9990     0.2590 ca         1 KWJ      -0.216000
     29 H1           4.7790    -2.2390     1.2910 ha         1 KWJ       0.134000
     30 H2          -4.4860     0.8990    -1.2150 h1         1 KWJ       0.068700
     31 H3          -5.8950     1.4290     1.4730 hc         1 KWJ       0.057700
     32 H4          -5.7590     2.5750     0.1220 hc         1 KWJ       0.057700
     33 H5          -6.7120     1.1210    -0.0680 hc         1 KWJ       0.057700
     34 H6          -2.1910     2.9400     1.3040 h1         1 KWJ       0.083200
     35 H7          -3.9200     3.1180     1.2970 h1         1 KWJ       0.083200
     36 H8          -2.8730     4.6310    -2.5320 ha         1 KWJ       0.257000
     37 H9           2.3770    -1.5610     1.2980 ha         1 KWJ       0.157000
     38 H10         -2.9460    -3.4590     0.9040 h1         1 KWJ       0.082200
     39 H11         -4.6850    -3.3060     0.7480 h1         1 KWJ       0.082200
     40 H12         -3.5780    -4.8170    -3.0690 ha         1 KWJ       0.258000
     41 H13          1.2940     1.8110     0.3000 hn         1 KWJ       0.511000
     42 H14          3.4200     2.2530    -0.4880 ha         1 KWJ       0.123000
     43 H15         -1.0890    -2.8060    -0.1620 h4         1 KWJ       0.036100
     44 H16          8.1610     0.8270    -0.7520 hn         1 KWJ       0.339500
     45 H17          6.3400     2.5590    -0.3250 hn         1 KWJ       0.311000
     46 C7          -3.0850     2.7290     0.7000 c3         1 KWJ       0.299900
@<TRIPOS>BOND
     1     1     3 1   
     2     1    11 1   
     3     1    17 2   
     4     2    10 ar  
     5     2    19 ar  
     6     2    29 1   
     7     3     4 1   
     8     3    12 1   
     9     3    30 1   
    10     4    31 1   
    11     4    32 1   
    12     4    33 1   
    13     5    14 ar  
    14     5    18 1   
    15     5    26 ar  
    16     6     7 3   
    17     6    46 1   
    18     7    36 1   
    19     8    12 1   
    20     8    14 ar  
    21     8    28 ar  
    22     9    10 ar  
    23     9    18 1   
    24     9    25 ar  
    25    10    37 1   
    26    11    13 1   
    27    11    28 1   
    28    12    46 1   
    29    13    16 1   
    30    13    38 1   
    31    13    39 1   
    32    15    16 3   
    33    15    40 1   
    34    18    41 1   
    35    19    20 1   
    36    19    24 ar  
    37    20    21 2   
    38    20    22 1   
    39    22    23 1   
    40    22    44 1   
    41    23    24 1   
    42    23    45 1   
    43    24    25 ar  
    44    25    42 1   
    45    26    27 ar  
    46    27    28 ar  
    47    27    43 1   
    48    34    46 1   
    49    35    46 1   
@<TRIPOS>SUBSTRUCTURE
     1 KWJ         1 TEMP              0 ****  ****    0 ROOT
