@<TRIPOS>MOLECULE
KWK
   39    40     1     0     0
SMALL
abcg2


@<TRIPOS>ATOM
      1 C1          -6.8120    -0.1300    -0.2900 c3         1 KWK      -0.087100
      2 C2          -5.4920    -0.2710     0.4620 c3         1 KWK      -0.059700
      3 C3          -5.3360    -1.6880     1.0060 c3         1 KWK      -0.087100
      4 C4          -4.3230     0.1330    -0.4370 c3         1 KWK      -0.075400
      5 C5          -2.9710     0.1300     0.2610 c3         1 KWK       0.160800
      6 C6          -0.6260     0.6630     0.0260 c3         1 KWK       0.158800
      7 C7           0.4260     1.2940    -0.8830 c3         1 KWK      -0.003200
      8 C8           1.8030     1.1930    -0.3160 cc         1 KWK      -0.138400
      9 C9           2.5290     2.1800     0.2890 cd         1 KWK      -0.159100
     10 C10          3.8210     0.3680     0.3930 ca         1 KWK      -0.047200
     11 C11          4.8460    -0.5530     0.6100 ca         1 KWK      -0.131000
     12 C12          4.6480    -1.8440     0.1600 ca         1 KWK      -0.091000
     13 N1          -1.9330     0.6670    -0.6000 n7         1 KWK      -0.864400
     14 N2           3.7340     1.6900     0.7130 na         1 KWK      -0.224700
     15 C13          3.4600    -2.2170    -0.4920 ca         1 KWK      -0.144000
     16 C14          2.4470    -1.3020    -0.7040 ca         1 KWK      -0.059000
     17 C15          2.6180     0.0150    -0.2590 ca         1 KWK      -0.096800
     18 H1          -7.6630    -0.3550     0.3540 hc         1 KWK       0.032367
     19 H2          -6.9470     0.8830    -0.6740 hc         1 KWK       0.032367
     20 H3          -6.8510    -0.8150    -1.1410 hc         1 KWK       0.032367
     21 H4          -5.5140     0.4190     1.3140 hc         1 KWK       0.041700
     22 H5          -5.2480    -2.4090     0.1890 hc         1 KWK       0.032367
     23 H6          -4.4520    -1.7930     1.6370 hc         1 KWK       0.032367
     24 H7          -6.1990    -1.9760     1.6090 hc         1 KWK       0.032367
     25 H8          -4.2850    -0.5330    -1.3060 hc         1 KWK       0.044700
     26 H9          -4.5160     1.1390    -0.8260 hc         1 KWK       0.044700
     27 H10         -3.0520     0.6820     1.2130 h1         1 KWK       0.027700
     28 H11         -2.6870    -0.8920     0.5280 h1         1 KWK       0.027700
     29 H12         -0.3510    -0.3750     0.2400 h1         1 KWK       0.032200
     30 H13         -0.6160     1.1880     0.9950 h1         1 KWK       0.032200
     31 H14          0.3830     0.8040    -1.8610 hc         1 KWK       0.048200
     32 H15          0.1720     2.3440    -1.0520 hc         1 KWK       0.048200
     33 H16          2.2710     3.2150     0.4520 h4         1 KWK       0.210000
     34 H17          5.7610    -0.2670     1.1120 ha         1 KWK       0.111000
     35 H18          5.4230    -2.5850     0.3140 ha         1 KWK       0.109000
     36 H19         -2.1770     1.6210    -0.8410 hn         1 KWK       0.400000
     37 H21          4.4450     2.2300     1.1780 hn         1 KWK       0.349000
     38 H22          3.3420    -3.2370    -0.8330 ha         1 KWK       0.110000
     39 H23          1.5350    -1.6010    -1.2060 ha         1 KWK       0.118000
@<TRIPOS>BOND
     1     1     2 1   
     2     1    18 1   
     3     1    19 1   
     4     1    20 1   
     5     2     3 1   
     6     2     4 1   
     7     2    21 1   
     8     3    22 1   
     9     3    23 1   
    10     3    24 1   
    11     4     5 1   
    12     4    25 1   
    13     4    26 1   
    14     5    13 1   
    15     5    27 1   
    16     5    28 1   
    17     6     7 1   
    18     6    13 1   
    19     6    29 1   
    20     6    30 1   
    21     7     8 1   
    22     7    31 1   
    23     7    32 1   
    24     8     9 2   
    25     8    17 1   
    26     9    14 1   
    27     9    33 1   
    28    10    11 ar  
    29    10    14 1   
    30    10    17 ar  
    31    11    12 ar  
    32    11    34 1   
    33    12    15 ar  
    34    12    35 1   
    35    13    36 1   
    36    14    37 1   
    37    15    16 ar  
    38    15    38 1   
    39    16    17 ar  
    40    16    39 1   
@<TRIPOS>SUBSTRUCTURE
     1 KWK         1 TEMP              0 ****  ****    0 ROOT
