@<TRIPOS>MOLECULE
KWK
   39    40     1     0     0
SMALL
No Charge or Current Charge


@<TRIPOS>ATOM
      1 C1          -6.9020    -0.0220    -0.2390 c3         1 KWK      -0.087100
      2 C2          -5.5600    -0.3320     0.4620 c3         1 KWK      -0.059700
      3 C3          -5.4520    -1.8390     0.7960 c3         1 KWK      -0.087100
      4 C4          -4.3610     0.1880    -0.3770 c3         1 KWK      -0.075400
      5 C5          -2.9890     0.0680     0.3240 c3         1 KWK       0.160800
      6 C6          -0.5730     0.6070     0.0580 c3         1 KWK       0.158800
      7 C7           0.4560     1.2430    -0.9010 c3         1 KWK      -0.003200
      8 C8           1.8630     1.1980    -0.3630 cc         1 KWK      -0.138400
      9 C9           2.6210     2.2650     0.1120 cd         1 KWK      -0.159100
     10 C10          3.8840     0.4320     0.3170 ca         1 KWK      -0.047200
     11 C11          4.9130    -0.4830     0.5750 ca         1 KWK      -0.131000
     12 C12          4.6920    -1.8410     0.2600 ca         1 KWK      -0.091000
     13 N1          -1.9360     0.6730    -0.5100 n7         1 KWK      -0.864400
     14 N2           3.8870     1.7960     0.5410 na         1 KWK      -0.224700
     15 C13          3.4600    -2.2510    -0.3030 ca         1 KWK      -0.144000
     16 C14          2.4420    -1.3070    -0.5530 ca         1 KWK      -0.059000
     17 C15          2.6940     0.0340    -0.2240 ca         1 KWK      -0.096800
     18 H1          -7.7480    -0.3410     0.3820 hc         1 KWK       0.032367
     19 H2          -7.0070     1.0540    -0.4220 hc         1 KWK       0.032367
     20 H3          -6.9690    -0.5420    -1.2030 hc         1 KWK       0.032367
     21 H4          -5.5620     0.2150     1.4140 hc         1 KWK       0.041700
     22 H5          -5.3830    -2.4390    -0.1200 hc         1 KWK       0.032367
     23 H6          -4.5700    -2.0470     1.4130 hc         1 KWK       0.032367
     24 H7          -6.3320    -2.1750     1.3580 hc         1 KWK       0.032367
     25 H8          -4.3250    -0.3520    -1.3310 hc         1 KWK       0.044700
     26 H9          -4.5350     1.2440    -0.6180 hc         1 KWK       0.044700
     27 H10         -3.0390     0.5720     1.2990 h1         1 KWK       0.027700
     28 H11         -2.7610    -0.9920     0.5030 h1         1 KWK       0.027700
     29 H12         -0.2900    -0.4380     0.2440 h1         1 KWK       0.032200
     30 H13         -0.5350     1.1370     1.0200 h1         1 KWK       0.032200
     31 H14          0.4190     0.7210    -1.8650 hc         1 KWK       0.048200
     32 H15          0.1710     2.2830    -1.0970 hc         1 KWK       0.048200
     33 H16          2.3500     3.3160     0.1780 h4         1 KWK       0.210000
     34 H17          5.8580    -0.1580     1.0060 ha         1 KWK       0.111000
     35 H18          5.4730    -2.5750     0.4490 ha         1 KWK       0.109000
     36 H19         -2.1740     1.6620    -0.6550 hn         1 KWK       0.400000
     37 H21          4.6440     2.3490     0.9340 hn         1 KWK       0.349000
     38 H22          3.2970    -3.2980    -0.5450 ha         1 KWK       0.110000
     39 H23          1.4930    -1.6110    -0.9880 ha         1 KWK       0.118000
@<TRIPOS>BOND
     1     1     2 1   
     2     1    18 1   
     3     1    19 1   
     4     1    20 1   
     5     2     3 1   
     6     2     4 1   
     7     2    21 1   
     8     3    22 1   
     9     3    23 1   
    10     3    24 1   
    11     4     5 1   
    12     4    25 1   
    13     4    26 1   
    14     5    13 1   
    15     5    27 1   
    16     5    28 1   
    17     6     7 1   
    18     6    13 1   
    19     6    29 1   
    20     6    30 1   
    21     7     8 1   
    22     7    31 1   
    23     7    32 1   
    24     8     9 2   
    25     8    17 1   
    26     9    14 1   
    27     9    33 1   
    28    10    11 ar  
    29    10    14 1   
    30    10    17 ar  
    31    11    12 ar  
    32    11    34 1   
    33    12    15 ar  
    34    12    35 1   
    35    13    36 1   
    36    14    37 1   
    37    15    16 ar  
    38    15    38 1   
    39    16    17 ar  
    40    16    39 1   
@<TRIPOS>SUBSTRUCTURE
     1 KWK         1 TEMP              0 ****  ****    0 ROOT
