@<TRIPOS>MOLECULE
KWL
   47    50     1     0     0
SMALL
bcc


@<TRIPOS>ATOM
      1 C11        -15.8710     5.1440   -16.2370 ca         1 KWL      -0.317300
      2 C13        -13.1750     3.6690   -14.3470 c6         1 KWL       0.168300
      3 C14        -11.9630     2.7710   -14.6300 c6         1 KWL       0.146300
      4 N          -19.7740    -4.8630   -14.5100 nb         1 KWL      -0.625000
      5 C          -18.8840    -3.8450   -14.4920 ca         1 KWL       0.286300
      6 C1         -21.0360    -4.5430   -14.5710 ca         1 KWL       0.295900
      7 C10        -17.2500     5.2160   -16.2580 ca         1 KWL       0.424200
      8 C12        -15.2400     4.0440   -15.6410 ca         1 KWL       0.206600
      9 C15        -11.5850     4.3850   -16.3510 c6         1 KWL       0.146300
     10 C16        -13.0690     4.7900   -16.4660 c6         1 KWL       0.168300
     11 C17        -16.6030    -3.0870   -14.4100 ca         1 KWL      -0.120000
     12 C18        -17.5000    -4.1170   -14.4270 ca         1 KWL      -0.158300
     13 C2         -21.4690    -3.1970   -14.6170 ca         1 KWL       0.295900
     14 C3         -19.3160    -2.4990   -14.5400 ca         1 KWL       0.287300
     15 C4         -18.3660    -1.4550   -14.5180 ca         1 KWL      -0.139300
     16 C5         -17.0260    -1.7340   -14.4520 ca         1 KWL      -0.081300
     17 C6         -15.9830    -0.6500   -14.3960 c3         1 KWL       0.208100
     18 C8         -16.0790     3.0200   -15.1490 ca         1 KWL      -0.249600
     19 C9         -17.4500     3.2230   -15.2180 ca         1 KWL       0.434200
     20 N1         -20.6340    -2.1970   -14.6040 nb         1 KWL      -0.620000
     21 N2         -16.4820     0.6240   -14.8570 n7         1 KWL      -0.816200
     22 N3         -18.0480     4.2900   -15.7430 nb         1 KWL      -0.683000
     23 N4         -13.8660     3.9410   -15.5970 nh         1 KWL      -0.681000
     24 N5         -11.3960     3.0060   -15.9520 n7         1 KWL      -0.783200
     25 H10        -15.3000     5.9580   -16.6610 ha         1 KWL       0.139000
     26 H12        -12.8570     4.6180   -13.8940 h1         1 KWL       0.045450
     27 H11        -13.8370     3.2060   -13.6190 h1         1 KWL       0.045450
     28 H13        -12.2500     1.7200   -14.5620 h1         1 KWL       0.055200
     29 H14        -11.2070     2.9470   -13.8590 h1         1 KWL       0.055200
     30 H9         -17.7310     6.0810   -16.7040 h4         1 KWL       0.016100
     31 H16        -11.0920     4.5660   -17.3070 h1         1 KWL       0.055200
     32 H17        -11.0790     5.0220   -15.6210 h1         1 KWL       0.055200
     33 H18        -13.1720     5.8560   -16.2220 h1         1 KWL       0.045450
     34 H19        -13.4180     4.6560   -17.4930 h1         1 KWL       0.045450
     35 H20        -15.5420    -3.3020   -14.3670 ha         1 KWL       0.133000
     36 H21        -17.1710    -5.1480   -14.3960 ha         1 KWL       0.152000
     37 H1         -22.5290    -2.9730   -14.6670 h4         1 KWL       0.029100
     38 H2         -18.7210    -0.4340   -14.5540 ha         1 KWL       0.167000
     39 H3         -15.0880    -0.9870   -14.9420 h1         1 KWL       0.039700
     40 H4         -15.6630    -0.5370   -13.3540 h1         1 KWL       0.039700
     41 H8         -18.1080     2.4480   -14.8400 h4         1 KWL       0.035100
     42 H22        -16.7100     0.5550   -15.8420 hn         1 KWL       0.364800
     43 H15        -11.8540     2.4020   -16.6230 hn         1 KWL       0.360800
     44 C7         -15.5350     1.7020   -14.6580 c3         1 KWL       0.221100
     45 H          -21.7640    -5.3460   -14.5850 h4         1 KWL       0.029100
     46 H7         -15.3140     1.7480   -13.5860 h1         1 KWL       0.038200
     47 H6         -14.5720     1.5110   -15.1560 h1         1 KWL       0.038200
@<TRIPOS>BOND
     1     1     7 ar  
     2     1     8 ar  
     3     1    25 1   
     4     2     3 1   
     5     2    23 1   
     6     2    26 1   
     7     2    27 1   
     8     3    24 1   
     9     3    28 1   
    10     3    29 1   
    11     4     5 ar  
    12     4     6 ar  
    13     5    12 ar  
    14     5    14 ar  
    15     6    13 ar  
    16     6    45 1   
    17     7    22 ar  
    18     7    30 1   
    19     8    18 ar  
    20     8    23 1   
    21     9    10 1   
    22     9    24 1   
    23     9    31 1   
    24     9    32 1   
    25    10    23 1   
    26    10    33 1   
    27    10    34 1   
    28    11    12 ar  
    29    11    16 ar  
    30    11    35 1   
    31    12    36 1   
    32    13    20 ar  
    33    13    37 1   
    34    14    15 ar  
    35    14    20 ar  
    36    15    16 ar  
    37    15    38 1   
    38    16    17 1   
    39    17    21 1   
    40    17    39 1   
    41    17    40 1   
    42    18    19 ar  
    43    18    44 1   
    44    19    22 ar  
    45    19    41 1   
    46    21    42 1   
    47    21    44 1   
    48    24    43 1   
    49    44    46 1   
    50    44    47 1   
@<TRIPOS>SUBSTRUCTURE
     1 KWL         1 TEMP              0 ****  ****    0 ROOT
