@<TRIPOS>MOLECULE
KWL
   47    50     1     0     0
SMALL
No Charge or Current Charge


@<TRIPOS>ATOM
      1 C11        -15.8700     5.2240   -15.9230 ca         1 KWL      -0.234000
      2 C13        -13.5540     2.8100   -15.1900 c6         1 KWL       0.168300
      3 C14        -13.0810     1.3120   -15.2300 c6         1 KWL       0.146300
      4 N          -17.0180    -3.9750   -16.3710 nb         1 KWL      -0.625000
      5 C          -16.8520    -2.9120   -15.5360 ca         1 KWL       0.221000
      6 C1         -18.2630    -4.1440   -16.8900 ca         1 KWL       0.295900
      7 C10        -16.5910     6.3230   -15.4480 ca         1 KWL       0.358900
      8 C12        -15.7150     4.1010   -15.1050 ca         1 KWL       0.345000
      9 C15        -14.3120     1.2840   -17.3770 c6         1 KWL       0.146300
     10 C16        -15.3830     2.3000   -16.8550 c6         1 KWL       0.168300
     11 C17        -15.3800    -1.5900   -14.0950 ca         1 KWL      -0.102000
     12 C18        -15.5900    -2.6760   -14.9610 ca         1 KWL      -0.075000
     13 C2         -19.3320    -3.2680   -16.5830 ca         1 KWL       0.295900
     14 C3         -17.9370    -2.0230   -15.2250 ca         1 KWL       0.222000
     15 C4         -17.7050    -0.9410   -14.3550 ca         1 KWL      -0.056000
     16 C5         -16.4350    -0.7140   -13.7890 ca         1 KWL      -0.081300
     17 C6         -16.2100     0.4710   -12.8580 c3         1 KWL       0.208100
     18 C8         -16.2960     4.1200   -13.8200 ca         1 KWL      -0.184300
     19 C9         -17.0020     5.2680   -13.4320 ca         1 KWL       0.368900
     20 N1         -19.1800    -2.2040   -15.7510 nb         1 KWL      -0.620000
     21 N2         -16.5680     1.7230   -13.5400 n7         1 KWL      -0.871400
     22 N3         -17.1530     6.3560   -14.2220 nb         1 KWL      -0.683000
     23 N4         -14.9860     2.9860   -15.5800 nh         1 KWL      -0.819400
     24 N5         -13.7390     0.4630   -16.2750 n7         1 KWL      -0.838400
     25 H10        -15.4310     5.2550   -16.9130 ha         1 KWL       0.121000
     26 H12        -12.9240     3.3910   -15.8800 h1         1 KWL       0.045450
     27 H11        -13.3730     3.2110   -14.1820 h1         1 KWL       0.045450
     28 H13        -13.2570     0.8550   -14.2460 h1         1 KWL       0.055200
     29 H14        -11.9930     1.3050   -15.3900 h1         1 KWL       0.055200
     30 H9         -16.7230     7.2100   -16.0670 h4         1 KWL       0.016100
     31 H16        -14.7720     0.6290   -18.1330 h1         1 KWL       0.055200
     32 H17        -13.5020     1.8370   -17.8760 h1         1 KWL       0.055200
     33 H18        -15.5810     3.0350   -17.6490 h1         1 KWL       0.045450
     34 H19        -16.3210     1.7520   -16.6840 h1         1 KWL       0.045450
     35 H20        -14.3940    -1.4350   -13.6620 ha         1 KWL       0.115000
     36 H21        -14.7650    -3.3450   -15.1900 ha         1 KWL       0.134000
     37 H1         -20.3220    -3.4230   -17.0100 h4         1 KWL       0.029100
     38 H2         -18.5230    -0.2650   -14.1220 ha         1 KWL       0.149000
     39 H3         -15.1550     0.4920   -12.5510 h1         1 KWL       0.039700
     40 H4         -16.8160     0.3390   -11.9510 h1         1 KWL       0.039700
     41 H8         -17.4670     5.3260   -12.4470 h4         1 KWL       0.035100
     42 H22        -16.0240     1.7700   -14.4190 hn         1 KWL       0.420000
     43 H15        -14.5310    -0.0090   -15.8240 hn         1 KWL       0.416000
     44 C7         -16.1830     2.9550   -12.8520 c3         1 KWL       0.221100
     45 H          -18.4080    -4.9910   -17.5590 h4         1 KWL       0.029100
     46 H7         -16.8180     3.1220   -11.9710 h1         1 KWL       0.038200
     47 H6         -15.1410     2.8960   -12.5070 h1         1 KWL       0.038200
@<TRIPOS>BOND
     1     1     7 ar  
     2     1     8 ar  
     3     1    25 1   
     4     2     3 1   
     5     2    23 1   
     6     2    26 1   
     7     2    27 1   
     8     3    24 1   
     9     3    28 1   
    10     3    29 1   
    11     4     5 ar  
    12     4     6 ar  
    13     5    12 ar  
    14     5    14 ar  
    15     6    13 ar  
    16     6    45 1   
    17     7    22 ar  
    18     7    30 1   
    19     8    18 ar  
    20     8    23 1   
    21     9    10 1   
    22     9    24 1   
    23     9    31 1   
    24     9    32 1   
    25    10    23 1   
    26    10    33 1   
    27    10    34 1   
    28    11    12 ar  
    29    11    16 ar  
    30    11    35 1   
    31    12    36 1   
    32    13    20 ar  
    33    13    37 1   
    34    14    15 ar  
    35    14    20 ar  
    36    15    16 ar  
    37    15    38 1   
    38    16    17 1   
    39    17    21 1   
    40    17    39 1   
    41    17    40 1   
    42    18    19 ar  
    43    18    44 1   
    44    19    22 ar  
    45    19    41 1   
    46    21    42 1   
    47    21    44 1   
    48    24    43 1   
    49    44    46 1   
    50    44    47 1   
@<TRIPOS>SUBSTRUCTURE
     1 KWL         1 TEMP              0 ****  ****    0 ROOT
