@<TRIPOS>MOLECULE
KWN
   50    53     1     0     0
SMALL
No Charge or Current Charge


@<TRIPOS>ATOM
      1 C10          2.0130     1.6520    -0.7960 cc         1 KWN      -0.090100
      2 C15          0.7320    -2.9430    -1.0860 ca         1 KWN       0.096900
      3 C20         -2.8710     0.3300    -0.1720 c6         1 KWN       0.256500
      4 C21         -4.2810     0.2980     0.4810 c6         1 KWN      -0.209700
      5 C22         -4.2020    -0.3170     1.8950 c          1 KWN       0.711000
      6 C26         -4.9260     2.3810    -0.9010 c6         1 KWN      -0.077400
      7 C28         -2.8900     0.9840    -1.5960 c6         1 KWN      -0.076700
      8 C02          5.4920     1.5730     0.3540 ca         1 KWN       0.176000
      9 C03          6.2220     0.4750     0.8490 ca         1 KWN      -0.189000
     10 C04          5.6050    -0.7920     0.9450 ca         1 KWN       0.147000
     11 C06          4.2640    -0.9770     0.5480 ca         1 KWN      -0.094000
     12 C07          3.5710     0.1380     0.0490 ca         1 KWN      -0.015800
     13 C08          4.1600     1.3710    -0.0380 ca         1 KWN      -0.126200
     14 C11          2.2150     0.3250    -0.4280 cd         1 KWN      -0.208000
     15 C12          1.2180    -0.7480    -0.5870 ca         1 KWN       0.259800
     16 C16         -0.6290    -2.6850    -0.8600 ca         1 KWN      -0.028000
     17 C18         -0.9930    -1.3770    -0.4840 ca         1 KWN       0.394900
     18 C25         -4.9290     1.7260     0.5070 c6         1 KWN      -0.037700
     19 C27         -3.5050     2.4060    -1.5110 c6         1 KWN      -0.062400
     20 C29         -3.5890     0.1200    -2.6960 c3         1 KWN      -0.078100
     21 C30         -6.3680     1.7070     1.0950 c3         1 KWN      -0.073100
     22 F01          6.0640     2.7940     0.2640 f          1 KWN      -0.187000
     23 F05          6.3080    -1.8390     1.4280 f          1 KWN      -0.189000
     24 F17         -1.5520    -3.6680    -1.0050 f          1 KWN      -0.171000
     25 N09          3.2460     2.2880    -0.5380 na         1 KWN      -0.207700
     26 N13         -0.0670    -0.4090    -0.3450 nb         1 KWN      -0.286000
     27 N14          1.6590    -1.9740    -0.9500 nb         1 KWN      -0.240000
     28 N19         -2.3260    -1.0370    -0.2470 nu         1 KWN      -0.879100
     29 O23         -3.5670     0.2750     2.7570 o          1 KWN      -0.725500
     30 O24         -4.8170    -1.3540     2.1020 o          1 KWN      -0.725500
     31 H101         1.1470     2.1620    -1.2100 h4         1 KWN       0.241000
     32 H151         1.0860    -3.9300    -1.3790 h4         1 KWN       0.019100
     33 H201        -2.2290     0.9490     0.4750 h1         1 KWN       0.079700
     34 H211        -4.9240    -0.3580    -0.1200 hc         1 KWN       0.039700
     35 H262        -5.6150     1.8460    -1.5680 hc         1 KWN       0.023200
     36 H261        -5.3060     3.4090    -0.8310 hc         1 KWN       0.023200
     37 H281        -1.8520     1.0990    -1.9350 hc         1 KWN       0.045700
     38 H031         7.2540     0.6040     1.1600 ha         1 KWN       0.137000
     39 H061         3.7940    -1.9520     0.6360 ha         1 KWN       0.163000
     40 H251        -4.3360     2.3670     1.1750 hc         1 KWN       0.061700
     41 H272        -3.5360     2.8660    -2.5080 hc         1 KWN       0.025200
     42 H271        -2.8570     3.0480    -0.8980 hc         1 KWN       0.025200
     43 H1          -4.6260    -0.1220    -2.4400 hc         1 KWN       0.026033
     44 H291        -3.6020     0.6470    -3.6570 hc         1 KWN       0.026033
     45 H292        -3.0600    -0.8260    -2.8600 hc         1 KWN       0.026033
     46 H2          -6.3790     1.3440     2.1290 hc         1 KWN       0.025700
     47 H301        -6.8040     2.7130     1.1020 hc         1 KWN       0.025700
     48 H302        -7.0310     1.0610     0.5060 hc         1 KWN       0.025700
     49 H091         3.4410     3.2720    -0.6990 hn         1 KWN       0.357000
     50 H191        -2.9860    -1.8070    -0.3550 hn         1 KWN       0.535000
@<TRIPOS>BOND
     1     1    14 2   
     2     1    25 1   
     3     1    31 1   
     4     2    16 ar  
     5     2    27 ar  
     6     2    32 1   
     7     3     4 1   
     8     3     7 1   
     9     3    28 1   
    10     3    33 1   
    11     4     5 1   
    12     4    18 1   
    13     4    34 1   
    14     5    29 1   
    15     5    30 1   
    16     6    18 1   
    17     6    19 1   
    18     6    35 1   
    19     6    36 1   
    20     7    19 1   
    21     7    20 1   
    22     7    37 1   
    23     8     9 ar  
    24     8    13 ar  
    25     8    22 1   
    26     9    10 ar  
    27     9    38 1   
    28    10    11 ar  
    29    10    23 1   
    30    11    12 ar  
    31    11    39 1   
    32    12    13 ar  
    33    12    14 1   
    34    13    25 1   
    35    14    15 1   
    36    15    26 ar  
    37    15    27 ar  
    38    16    17 ar  
    39    16    24 1   
    40    17    26 ar  
    41    17    28 1   
    42    18    21 1   
    43    18    40 1   
    44    19    41 1   
    45    19    42 1   
    46    20    43 1   
    47    20    44 1   
    48    20    45 1   
    49    21    46 1   
    50    21    47 1   
    51    21    48 1   
    52    25    49 1   
    53    28    50 1   
@<TRIPOS>SUBSTRUCTURE
     1 KWN         1 TEMP              0 ****  ****    0 ROOT
