@<TRIPOS>MOLECULE
KWN
   50    53     1     0     0
SMALL
abcg2


@<TRIPOS>ATOM
      1 C10          1.7350     1.5160    -0.1030 cc         1 KWN      -0.090100
      2 C15          0.5970    -3.1120    -0.1660 ca         1 KWN       0.096900
      3 C20         -2.8900     0.2540    -0.2370 c6         1 KWN       0.256500
      4 C21         -4.3470     0.2730     0.2400 c6         1 KWN      -0.209700
      5 C22         -4.4530    -0.5260     1.5560 c          1 KWN       0.711000
      6 C26         -4.6230     2.5000    -0.9100 c6         1 KWN      -0.077400
      7 C28         -2.6940     0.9930    -1.5700 c6         1 KWN      -0.076700
      8 C02          5.3020     1.7130     0.0470 ca         1 KWN       0.176000
      9 C03          6.2170     0.6910     0.0900 ca         1 KWN      -0.189000
     10 C04          5.7370    -0.6220     0.0780 ca         1 KWN       0.147000
     11 C06          4.4070    -0.9550     0.0250 ca         1 KWN      -0.094000
     12 C07          3.4840     0.1000    -0.0190 ca         1 KWN      -0.015800
     13 C08          3.9450     1.4320    -0.0070 ca         1 KWN      -0.126200
     14 C11          2.0530     0.1770    -0.0810 cd         1 KWN      -0.208000
     15 C12          1.0810    -0.9040    -0.1250 ca         1 KWN       0.259800
     16 C16         -0.7310    -2.8250    -0.2260 ca         1 KWN      -0.028000
     17 C18         -1.1390    -1.4720    -0.2330 ca         1 KWN       0.394900
     18 C25         -4.8340     1.7190     0.3860 c6         1 KWN      -0.037700
     19 C27         -3.1790     2.4330    -1.3920 c6         1 KWN      -0.062400
     20 C29         -3.3570     0.3000    -2.7540 c3         1 KWN      -0.078100
     21 C30         -6.2950     1.7780     0.8130 c3         1 KWN      -0.073100
     22 F01          5.7090     2.9880     0.0550 f          1 KWN      -0.187000
     23 F05          6.6540    -1.6060     0.1210 f          1 KWN      -0.189000
     24 F17         -1.6620    -3.7930    -0.2750 f          1 KWN      -0.171000
     25 N09          2.8600     2.2620    -0.0590 na         1 KWN      -0.207700
     26 N13         -0.2000    -0.5360    -0.1770 nb         1 KWN      -0.286000
     27 N14          1.5300    -2.1510    -0.1160 nb         1 KWN      -0.240000
     28 N19         -2.4270    -1.1230    -0.2890 nu         1 KWN      -0.879100
     29 O23         -3.9740     0.0060     2.5770 o          1 KWN      -0.725500
     30 O24         -4.9780    -1.6580     1.4870 o          1 KWN      -0.725500
     31 H101         0.7640     1.9810    -0.1490 h4         1 KWN       0.241000
     32 H151         0.9350    -4.1430    -0.1570 h4         1 KWN       0.019100
     33 H201        -2.2870     0.7740     0.5150 h1         1 KWN       0.079700
     34 H211        -4.9720    -0.2240    -0.5130 hc         1 KWN       0.039700
     35 H262        -5.2950     2.1090    -1.6830 hc         1 KWN       0.023200
     36 H261        -4.9130     3.5440    -0.7580 hc         1 KWN       0.023200
     37 H281        -1.6180     1.0240    -1.7650 hc         1 KWN       0.045700
     38 H031         7.2790     0.8950     0.1320 ha         1 KWN       0.137000
     39 H061         4.0850    -1.9860     0.0160 ha         1 KWN       0.163000
     40 H251        -4.2270     2.1900     1.1680 hc         1 KWN       0.061700
     41 H272        -3.0640     2.9830    -2.3300 hc         1 KWN       0.025200
     42 H271        -2.5360     2.9370    -0.6610 hc         1 KWN       0.025200
     43 H1          -4.4430     0.2550    -2.6630 hc         1 KWN       0.026033
     44 H291        -3.1310     0.8350    -3.6780 hc         1 KWN       0.026033
     45 H292        -2.9950    -0.7220    -2.8760 hc         1 KWN       0.026033
     46 H2          -6.4590     1.3070     1.7840 hc         1 KWN       0.025700
     47 H301        -6.6370     2.8120     0.8920 hc         1 KWN       0.025700
     48 H302        -6.9380     1.2750     0.0860 hc         1 KWN       0.025700
     49 H091         2.8830     3.2680    -0.0650 hn         1 KWN       0.357000
     50 H191        -3.1230    -1.8510    -0.2750 hn         1 KWN       0.535000
@<TRIPOS>BOND
     1     1    14 2   
     2     1    25 1   
     3     1    31 1   
     4     2    16 ar  
     5     2    27 ar  
     6     2    32 1   
     7     3     4 1   
     8     3     7 1   
     9     3    28 1   
    10     3    33 1   
    11     4     5 1   
    12     4    18 1   
    13     4    34 1   
    14     5    29 1   
    15     5    30 1   
    16     6    18 1   
    17     6    19 1   
    18     6    35 1   
    19     6    36 1   
    20     7    19 1   
    21     7    20 1   
    22     7    37 1   
    23     8     9 ar  
    24     8    13 ar  
    25     8    22 1   
    26     9    10 ar  
    27     9    38 1   
    28    10    11 ar  
    29    10    23 1   
    30    11    12 ar  
    31    11    39 1   
    32    12    13 ar  
    33    12    14 1   
    34    13    25 1   
    35    14    15 1   
    36    15    26 ar  
    37    15    27 ar  
    38    16    17 ar  
    39    16    24 1   
    40    17    26 ar  
    41    17    28 1   
    42    18    21 1   
    43    18    40 1   
    44    19    41 1   
    45    19    42 1   
    46    20    43 1   
    47    20    44 1   
    48    20    45 1   
    49    21    46 1   
    50    21    47 1   
    51    21    48 1   
    52    25    49 1   
    53    28    50 1   
@<TRIPOS>SUBSTRUCTURE
     1 KWN         1 TEMP              0 ****  ****    0 ROOT
