@<TRIPOS>MOLECULE
KWP
   41    43     1     0     0
SMALL
No Charge or Current Charge


@<TRIPOS>ATOM
      1 C1          15.2080    22.7120   -15.6860 ca         1 KWP      -0.176000
      2 C10         13.5110    22.2950   -13.9920 ca         1 KWP       0.075000
      3 C11         12.7530    23.3680   -14.5020 ca         1 KWP       0.162000
      4 C12         14.2290    25.5280   -19.0610 c2         1 KWP       0.384900
      5 C13         12.9240    26.2540   -21.0800 c          1 KWP       0.623700
      6 C14         15.6660    23.8120   -18.4540 c5         1 KWP       0.200800
      7 C15         14.9930    24.4090   -19.7250 c5         1 KWP      -0.118000
      8 C16         16.0070    24.8340   -20.8360 c3         1 KWP      -0.065400
      9 C17         16.6980    23.6680   -21.5810 c3         1 KWP       0.160600
     10 C2          14.7400    21.9710   -14.5850 ca         1 KWP      -0.058000
     11 C3          11.6270    27.3830   -22.9500 ca         1 KWP      -0.125500
     12 C4          12.5610    28.8080   -21.2490 ca         1 KWP      -0.125500
     13 C5          13.2250    24.1050   -15.6010 ca         1 KWP      -0.145000
     14 C6          11.1170    28.5350   -23.5730 ca         1 KWP       0.331900
     15 C7          12.0150    29.9050   -21.9390 ca         1 KWP       0.331900
     16 C8          12.3710    27.4960   -21.7530 ca         1 KWP      -0.116600
     17 C9          14.4550    23.7830   -16.2130 ca         1 KWP       0.354000
     18 N18         11.3020    29.7820   -23.0820 nb         1 KWP      -0.643000
     19 N19         14.9570    24.5210   -17.3300 nh         1 KWP      -0.516500
     20 N20         14.2840    25.6250   -17.7890 n2         1 KWP      -0.446400
     21 O22         12.7720    25.1440   -21.5710 o          1 KWP      -0.570100
     22 O23         17.5770    22.9500   -20.7060 oh         1 KWP      -0.679000
     23 Cl24        12.9470    21.3500   -12.6120 cl         1 KWP      -0.188000
     24 Cl25        11.2050    23.8110   -13.7810 cl         1 KWP      -0.189000
     25 H1          16.1690    22.4550   -16.1220 ha         1 KWP       0.123000
     26 H3          15.5360    22.7210   -18.4180 h1         1 KWP       0.071700
     27 H4          16.7430    24.0250   -18.4170 h1         1 KWP       0.071700
     28 H5          14.2960    23.6810   -20.1500 hc         1 KWP       0.098700
     29 H6          16.7760    25.4910   -20.4110 hc         1 KWP       0.060200
     30 H7          15.4980    25.4340   -21.5980 hc         1 KWP       0.060200
     31 H8          17.2670    24.0800   -22.4260 h1         1 KWP       0.030700
     32 H9          15.9320    22.9980   -21.9940 h1         1 KWP       0.030700
     33 H10         15.3320    21.1490   -14.1910 ha         1 KWP       0.129000
     34 H12         13.1250    29.0050   -20.3420 ha         1 KWP       0.136500
     35 H13         12.6230    24.9250   -15.9750 ha         1 KWP       0.149000
     36 H14         10.5410    28.4580   -24.4950 h4         1 KWP       0.028600
     37 H15         12.1540    30.9190   -21.5640 h4         1 KWP       0.028600
     38 H18         18.0130    22.2540   -21.2480 ho         1 KWP       0.445000
     39 N21         13.5850    26.4520   -19.8870 ns         1 KWP      -0.403400
     40 H11         11.4380    26.4130   -23.4030 ha         1 KWP       0.136500
     41 H17         13.5430    27.3900   -19.5240 hn         1 KWP       0.339500
@<TRIPOS>BOND
     1     1    10 ar  
     2     1    17 ar  
     3     1    25 1   
     4     2     3 ar  
     5     2    10 ar  
     6     2    23 1   
     7     3    13 ar  
     8     3    24 1   
     9     4     7 1   
    10     4    20 2   
    11     4    39 1   
    12     5    16 1   
    13     5    21 2   
    14     5    39 1   
    15     6     7 1   
    16     6    19 1   
    17     6    26 1   
    18     6    27 1   
    19     7     8 1   
    20     7    28 1   
    21     8     9 1   
    22     8    29 1   
    23     8    30 1   
    24     9    22 1   
    25     9    31 1   
    26     9    32 1   
    27    10    33 1   
    28    11    14 ar  
    29    11    16 ar  
    30    11    40 1   
    31    12    15 ar  
    32    12    16 ar  
    33    12    34 1   
    34    13    17 ar  
    35    13    35 1   
    36    14    18 ar  
    37    14    36 1   
    38    15    18 ar  
    39    15    37 1   
    40    17    19 1   
    41    19    20 1   
    42    22    38 1   
    43    39    41 1   
@<TRIPOS>SUBSTRUCTURE
     1 KWP         1 TEMP              0 ****  ****    0 ROOT
