@<TRIPOS>MOLECULE
KWP
   41    43     1     0     0
SMALL
abcg2


@<TRIPOS>ATOM
      1 C1          14.8900    22.4080   -15.9460 ca         1 KWP      -0.176000
      2 C10         13.9830    22.6810   -13.7250 ca         1 KWP       0.075000
      3 C11         13.3540    23.8530   -14.1450 ca         1 KWP       0.162000
      4 C12         13.8470    25.1630   -19.4040 c2         1 KWP       0.384900
      5 C13         13.1240    26.2910   -21.4690 c          1 KWP       0.623700
      6 C14         15.0010    23.2460   -18.7490 c5         1 KWP       0.200800
      7 C15         14.8620    24.1900   -19.9570 c5         1 KWP      -0.118000
      8 C16         16.1620    24.9130   -20.3550 c3         1 KWP      -0.065400
      9 C17         17.0660    24.0850   -21.2460 c3         1 KWP       0.160600
     10 C2          14.7480    21.9700   -14.6420 ca         1 KWP      -0.058000
     11 C3          11.7670    27.4790   -23.1760 ca         1 KWP      -0.125500
     12 C4          12.4530    28.7400   -21.2670 ca         1 KWP      -0.125500
     13 C5          13.4830    24.3090   -15.4450 ca         1 KWP      -0.145000
     14 C6          11.1420    28.6240   -23.6460 ca         1 KWP       0.331900
     15 C7          11.8080    29.8360   -21.8280 ca         1 KWP       0.331900
     16 C8          12.4320    27.5290   -21.9540 ca         1 KWP      -0.116600
     17 C9          14.2610    23.5930   -16.3690 ca         1 KWP       0.354000
     18 N18         11.1570    29.7910   -22.9920 nb         1 KWP      -0.643000
     19 N19         14.4350    24.0450   -17.6530 nh         1 KWP      -0.516500
     20 N20         13.6540    25.0740   -18.1390 n2         1 KWP      -0.446400
     21 O22         13.5560    25.4570   -22.2520 o          1 KWP      -0.570100
     22 O23         17.4860    22.9070   -20.5480 oh         1 KWP      -0.679000
     23 CL24        13.8310    22.0880   -12.0930 cl         1 KWP      -0.188000
     24 CL25        12.3770    24.7850   -13.0410 cl         1 KWP      -0.189000
     25 H1          15.4920    21.8300   -16.6320 ha         1 KWP       0.123000
     26 H3          14.4160    22.3300   -18.8840 h1         1 KWP       0.071700
     27 H4          16.0330    22.9790   -18.5470 h1         1 KWP       0.071700
     28 H5          14.4670    23.6660   -20.8240 hc         1 KWP       0.098700
     29 H6          16.6980    25.2190   -19.4510 hc         1 KWP       0.060200
     30 H7          15.9170    25.8230   -20.9050 hc         1 KWP       0.060200
     31 H8          17.9360    24.6840   -21.5350 h1         1 KWP       0.030700
     32 H9          16.5240    23.8090   -22.1570 h1         1 KWP       0.030700
     33 H10         15.2360    21.0580   -14.3260 ha         1 KWP       0.129000
     34 H12         12.9790    28.8570   -20.3290 ha         1 KWP       0.136500
     35 H13         12.9850    25.2170   -15.7460 ha         1 KWP       0.149000
     36 H14         10.6070    28.6040   -24.5880 h4         1 KWP       0.028600
     37 H15         11.8220    30.7920   -21.3160 h4         1 KWP       0.028600
     38 H18         18.0390    22.3870   -21.1420 ho         1 KWP       0.445000
     39 N21         13.2270    26.1810   -20.1090 ns         1 KWP      -0.403400
     40 H11         11.7350    26.5600   -23.7450 ha         1 KWP       0.136500
     41 H17         12.7230    26.8460   -19.5390 hn         1 KWP       0.339500
@<TRIPOS>BOND
     1     1    10 ar  
     2     1    17 ar  
     3     1    25 1   
     4     2     3 ar  
     5     2    10 ar  
     6     2    23 1   
     7     3    13 ar  
     8     3    24 1   
     9     4     7 1   
    10     4    20 2   
    11     4    39 1   
    12     5    16 1   
    13     5    21 2   
    14     5    39 1   
    15     6     7 1   
    16     6    19 1   
    17     6    26 1   
    18     6    27 1   
    19     7     8 1   
    20     7    28 1   
    21     8     9 1   
    22     8    29 1   
    23     8    30 1   
    24     9    22 1   
    25     9    31 1   
    26     9    32 1   
    27    10    33 1   
    28    11    14 ar  
    29    11    16 ar  
    30    11    40 1   
    31    12    15 ar  
    32    12    16 ar  
    33    12    34 1   
    34    13    17 ar  
    35    13    35 1   
    36    14    18 ar  
    37    14    36 1   
    38    15    18 ar  
    39    15    37 1   
    40    17    19 1   
    41    19    20 1   
    42    22    38 1   
    43    39    41 1   
@<TRIPOS>SUBSTRUCTURE
     1 KWP         1 TEMP              0 ****  ****    0 ROOT
