@<TRIPOS>MOLECULE
KWQ
   37    39     1     0     0
SMALL
bcc


@<TRIPOS>ATOM
      1 CAA          4.5110     1.6080    -1.1500 c3         1 KWQ      -0.089100
      2 CAP          3.8250     0.5800    -0.2550 c3         1 KWQ      -0.063700
      3 CAB          4.3230     0.7090     1.1810 c3         1 KWQ      -0.089100
      4 CAI          2.3070     0.7390    -0.3590 c3         1 KWQ      -0.069400
      5 CAQ          1.4850    -0.2930     0.4180 c6         1 KWQ       0.240700
      6 CAM          0.0180    -0.0690     0.2470 cc         1 KWQ      -0.067300
      7 NAK         -0.6090     1.1410     0.3920 na         1 KWQ      -0.170400
      8 CAN         -1.9490     0.9800     0.1790 ca         1 KWQ      -0.042200
      9 CAE         -2.9860     1.9080     0.2240 ca         1 KWQ      -0.150000
     10 CAC         -4.2670     1.4490    -0.0310 ca         1 KWQ      -0.111000
     11 CAD         -4.5110     0.0990    -0.3250 ca         1 KWQ      -0.162000
     12 CAF         -3.4780    -0.8190    -0.3700 ca         1 KWQ      -0.078000
     13 CAO         -2.1730    -0.3850    -0.1150 ca         1 KWQ      -0.088800
     14 CAL         -0.8980    -1.0310    -0.0620 cd         1 KWQ      -0.124400
     15 CAH         -0.5130    -2.4640    -0.2210 c6         1 KWQ       0.002800
     16 CAG          0.8580    -2.6570     0.4190 c6         1 KWQ       0.162800
     17 NAJ          1.7780    -1.6370    -0.0650 n7         1 KWQ      -0.808200
     18 H1           5.5970     1.5120    -1.1010 hc         1 KWQ       0.032700
     19 H2           4.2130     1.4920    -2.1930 hc         1 KWQ       0.032700
     20 H3           4.2530     2.6240    -0.8420 hc         1 KWQ       0.032700
     21 H4           4.0990    -0.4140    -0.6290 hc         1 KWQ       0.052700
     22 H5           4.0720     1.6910     1.5910 hc         1 KWQ       0.032700
     23 H6           3.8920    -0.0430     1.8430 hc         1 KWQ       0.032700
     24 H7           5.4080     0.5980     1.2300 hc         1 KWQ       0.032700
     25 H8           2.0460     1.7430    -0.0050 hc         1 KWQ       0.047200
     26 H9           2.0080     0.6880    -1.4100 hc         1 KWQ       0.047200
     27 H10          1.7140    -0.1880     1.4940 h1         1 KWQ       0.027700
     28 H11         -0.1620     2.0070     0.6390 hn         1 KWQ       0.297700
     29 H12         -2.8000     2.9500     0.4500 ha         1 KWQ       0.129000
     30 H13         -5.0950     2.1460    -0.0020 ha         1 KWQ       0.126000
     31 H14         -5.5260    -0.2260    -0.5190 ha         1 KWQ       0.127000
     32 H15         -3.6790    -1.8600    -0.5970 ha         1 KWQ       0.131000
     33 H16         -1.2420    -3.1230     0.2590 hc         1 KWQ       0.052200
     34 H17         -0.4770    -2.7540    -1.2760 hc         1 KWQ       0.052200
     35 H18          0.7480    -2.6400     1.5140 h1         1 KWQ       0.031700
     36 H19          1.2640    -3.6340     0.1530 h1         1 KWQ       0.031700
     37 H20          2.7180    -1.8850     0.2120 hn         1 KWQ       0.357800
@<TRIPOS>BOND
     1     1     2 1   
     2     1    18 1   
     3     1    19 1   
     4     1    20 1   
     5     2     3 1   
     6     2     4 1   
     7     2    21 1   
     8     3    22 1   
     9     3    23 1   
    10     3    24 1   
    11     4     5 1   
    12     4    25 1   
    13     4    26 1   
    14     5     6 1   
    15     5    17 1   
    16     5    27 1   
    17     6     7 1   
    18     6    14 2   
    19     7     8 1   
    20     7    28 1   
    21     8     9 ar  
    22     8    13 ar  
    23     9    10 ar  
    24     9    29 1   
    25    10    11 ar  
    26    10    30 1   
    27    11    12 ar  
    28    11    31 1   
    29    12    13 ar  
    30    12    32 1   
    31    13    14 1   
    32    14    15 1   
    33    15    16 1   
    34    15    33 1   
    35    15    34 1   
    36    16    17 1   
    37    16    35 1   
    38    16    36 1   
    39    17    37 1   
@<TRIPOS>SUBSTRUCTURE
     1 KWQ         1 TEMP              0 ****  ****    0 ROOT
