@<TRIPOS>MOLECULE
KWQ
   37    39     1     0     0
SMALL
No Charge or Current Charge


@<TRIPOS>ATOM
      1 CAA          4.6420     1.6510    -1.1230 c3         1 KWQ      -0.089100
      2 CAP          3.9160     0.6080    -0.2430 c3         1 KWQ      -0.063700
      3 CAB          4.4080     0.6920     1.2220 c3         1 KWQ      -0.089100
      4 CAI          2.3710     0.7530    -0.3670 c3         1 KWQ      -0.069400
      5 CAQ          1.5040    -0.3010     0.3860 c6         1 KWQ       0.240700
      6 CAM          0.0180    -0.0220     0.2240 cc         1 KWQ      -0.067300
      7 NAK         -0.6740     1.2030     0.3290 na         1 KWQ      -0.220700
      8 CAN         -2.0310     0.9890     0.1450 ca         1 KWQ      -0.042200
      9 CAE         -3.0810     1.9150     0.1590 ca         1 KWQ      -0.132000
     10 CAC         -4.3910     1.4300    -0.0560 ca         1 KWQ      -0.093000
     11 CAD         -4.6170     0.0480    -0.2770 ca         1 KWQ      -0.144000
     12 CAF         -3.5380    -0.8620    -0.2840 ca         1 KWQ      -0.060000
     13 CAO         -2.2540    -0.3440    -0.0680 ca         1 KWQ      -0.088800
     14 CAL         -0.9600    -0.9790    -0.0120 cd         1 KWQ      -0.124400
     15 CAH         -0.5870    -2.4370    -0.1680 c6         1 KWQ       0.002800
     16 CAG          0.8530    -2.6990     0.3560 c6         1 KWQ       0.162800
     17 NAJ          1.8090    -1.6660    -0.1240 n7         1 KWQ      -0.863400
     18 H1           5.7290     1.5100    -1.0770 hc         1 KWQ       0.032700
     19 H2           4.3350     1.5550    -2.1720 hc         1 KWQ       0.032700
     20 H3           4.4130     2.6710    -0.7910 hc         1 KWQ       0.032700
     21 H4           4.1980    -0.3800    -0.6280 hc         1 KWQ       0.052700
     22 H5           4.1090     1.6420     1.6810 hc         1 KWQ       0.032700
     23 H6           4.0010    -0.1270     1.8260 hc         1 KWQ       0.032700
     24 H7           5.5020     0.6210     1.2670 hc         1 KWQ       0.032700
     25 H8           2.0990     1.7550    -0.0140 hc         1 KWQ       0.047200
     26 H9           2.1040     0.7300    -1.4310 hc         1 KWQ       0.047200
     27 H10          1.7490    -0.2610     1.4570 h1         1 KWQ       0.027700
     28 H11         -0.2480     2.1040     0.5180 hn         1 KWQ       0.348000
     29 H12         -2.8970     2.9740     0.3290 ha         1 KWQ       0.111000
     30 H13         -5.2300     2.1220    -0.0530 ha         1 KWQ       0.108000
     31 H14         -5.6300    -0.3140    -0.4410 ha         1 KWQ       0.109000
     32 H15         -3.6960    -1.9240    -0.4520 ha         1 KWQ       0.113000
     33 H16         -1.2970    -3.0830     0.3650 hc         1 KWQ       0.052200
     34 H17         -0.6440    -2.7200    -1.2280 hc         1 KWQ       0.052200
     35 H18          0.8460    -2.7010     1.4560 h1         1 KWQ       0.031700
     36 H19          1.1850    -3.6940     0.0250 h1         1 KWQ       0.031700
     37 H20          2.7560    -1.9150     0.1800 hn         1 KWQ       0.413000
@<TRIPOS>BOND
     1     1     2 1   
     2     1    18 1   
     3     1    19 1   
     4     1    20 1   
     5     2     3 1   
     6     2     4 1   
     7     2    21 1   
     8     3    22 1   
     9     3    23 1   
    10     3    24 1   
    11     4     5 1   
    12     4    25 1   
    13     4    26 1   
    14     5     6 1   
    15     5    17 1   
    16     5    27 1   
    17     6     7 1   
    18     6    14 2   
    19     7     8 1   
    20     7    28 1   
    21     8     9 ar  
    22     8    13 ar  
    23     9    10 ar  
    24     9    29 1   
    25    10    11 ar  
    26    10    30 1   
    27    11    12 ar  
    28    11    31 1   
    29    12    13 ar  
    30    12    32 1   
    31    13    14 1   
    32    14    15 1   
    33    15    16 1   
    34    15    33 1   
    35    15    34 1   
    36    16    17 1   
    37    16    35 1   
    38    16    36 1   
    39    17    37 1   
@<TRIPOS>SUBSTRUCTURE
     1 KWQ         1 TEMP              0 ****  ****    0 ROOT
