@<TRIPOS>MOLECULE
KWR
   37    39     1     0     0
SMALL
No Charge or Current Charge


@<TRIPOS>ATOM
      1 N1           9.7440    -0.3010    21.5510 ns         1 KWR      -0.144000
      2 C4           5.5340     1.5410    18.3560 ca         1 KWR      -0.160000
      3 C5           6.1020     0.8300    17.2870 ca         1 KWR       0.340900
      4 C6           7.3680    -0.4680    18.7290 ca         1 KWR       0.340900
      5 C7          11.1210    -0.0590    21.8040 ca         1 KWR       0.012000
      6 C8          12.0310    -1.0750    21.4610 ca         1 KWR      -0.197000
      7 C10         13.8860     0.2740    22.2560 ca         1 KWR      -0.160000
      8 C13         13.6650     4.8570    23.8920 cy         1 KWR      -0.179400
      9 C15         11.6120     1.1300    22.3880 ca         1 KWR      -0.217000
     10 N            7.0070    -0.1610    17.4620 nb         1 KWR      -0.661000
     11 N2          12.5400     4.2780    22.1380 ns         1 KWR      -0.554900
     12 C1           7.3040    -0.1980    21.2720 c3         1 KWR      -0.102100
     13 C11         12.9970     1.3000    22.6070 ca         1 KWR       0.164100
     14 O1          13.5270     2.4400    23.1760 os         1 KWR      -0.349100
     15 C2           6.8480     0.1910    19.8640 ca         1 KWR      -0.143300
     16 C9          13.4080    -0.9130    21.6830 ca         1 KWR      -0.048000
     17 C12         12.7830     3.6450    23.3480 cy         1 KWR       0.323700
     18 C14         13.1710     5.4020    22.4860 c          1 KWR       0.572000
     19 C            8.6170     0.5070    21.6420 c          1 KWR       0.608100
     20 O            8.6360     1.6890    21.9670 o          1 KWR      -0.587100
     21 O2          13.1620     6.4380    21.8440 o          1 KWR      -0.512000
     22 C3           5.9100     1.2210    19.6710 ca         1 KWR      -0.049000
     23 H1           9.5500    -1.2460    21.2460 hn         1 KWR       0.152000
     24 H3           5.8260     1.0600    16.2580 h4         1 KWR       0.023100
     25 H4           8.0990    -1.2680    18.8380 h4         1 KWR       0.012100
     26 H5          11.6710    -2.0000    21.0150 ha         1 KWR       0.114000
     27 H6          14.9520     0.4020    22.4300 ha         1 KWR       0.133000
     28 H7          14.7490     4.7250    23.9250 hc         1 KWR       0.092700
     29 H8          13.2680     5.4390    24.7270 hc         1 KWR       0.092700
     30 H9          10.9250     1.9150    22.6780 ha         1 KWR       0.152000
     31 H10         11.6430     4.3320    21.6740 hn         1 KWR       0.341500
     32 H11          6.5380     0.0910    22.0010 hc         1 KWR       0.071200
     33 H12          7.4430    -1.2860    21.3130 hc         1 KWR       0.071200
     34 H13         14.1020    -1.7060    21.4130 ha         1 KWR       0.119000
     35 H14         11.8860     3.4220    23.9370 h2         1 KWR       0.071700
     36 H15          5.4850     1.7620    20.5140 ha         1 KWR       0.129000
     37 H2           4.8120     2.3300    18.1620 ha         1 KWR       0.128000
@<TRIPOS>BOND
     1     1     5 1   
     2     1    19 1   
     3     1    23 1   
     4     2     3 ar  
     5     2    22 ar  
     6     2    37 1   
     7     3    10 ar  
     8     3    24 1   
     9     4    10 ar  
    10     4    15 ar  
    11     4    25 1   
    12     5     6 ar  
    13     5     9 ar  
    14     6    16 ar  
    15     6    26 1   
    16     7    13 ar  
    17     7    16 ar  
    18     7    27 1   
    19     8    17 1   
    20     8    18 1   
    21     8    28 1   
    22     8    29 1   
    23     9    13 ar  
    24     9    30 1   
    25    11    17 1   
    26    11    18 1   
    27    11    31 1   
    28    12    15 1   
    29    12    19 1   
    30    12    32 1   
    31    12    33 1   
    32    13    14 1   
    33    14    17 1   
    34    15    22 ar  
    35    16    34 1   
    36    17    35 1   
    37    18    21 2   
    38    19    20 2   
    39    22    36 1   
@<TRIPOS>SUBSTRUCTURE
     1 KWR         1 TEMP              0 ****  ****    0 ROOT
