@<TRIPOS>MOLECULE
KWR
   37    39     1     0     0
SMALL
abcg2


@<TRIPOS>ATOM
      1 N1           9.8050    -0.4370    21.5970 ns         1 KWR      -0.144000
      2 C4           5.8970     1.8550    18.4970 ca         1 KWR      -0.160000
      3 C5           6.2880     1.0890    17.4050 ca         1 KWR       0.340900
      4 C6           7.2990    -0.4530    18.7550 ca         1 KWR       0.340900
      5 C7          11.1620    -0.1600    21.8390 ca         1 KWR       0.012000
      6 C8          12.0690    -1.2040    21.6460 ca         1 KWR      -0.197000
      7 C10         13.8880     0.2580    22.2700 ca         1 KWR      -0.160000
      8 C13         13.4020     4.8150    23.6190 cy         1 KWR      -0.179400
      9 C15         11.6120     1.0980    22.2500 ca         1 KWR      -0.217000
     10 N            6.9760    -0.0500    17.5240 nb         1 KWR      -0.661000
     11 N2          12.0890     4.2990    22.0850 ns         1 KWR      -0.554900
     12 C1           7.4060    -0.2610    21.2660 c3         1 KWR      -0.102100
     13 C11         12.9740     1.2920    22.4650 ca         1 KWR       0.164100
     14 O1          13.5050     2.4910    22.8630 os         1 KWR      -0.349100
     15 C2           6.9630     0.2420    19.9160 ca         1 KWR      -0.143300
     16 C9          13.4230    -0.9840    21.8620 ca         1 KWR      -0.048000
     17 C12         12.6330     3.5410    23.2120 cy         1 KWR       0.323700
     18 C14         12.6890     5.4730    22.4300 c          1 KWR       0.572000
     19 C            8.7270     0.3890    21.6660 c          1 KWR       0.608100
     20 O            8.7800     1.5700    21.9900 o          1 KWR      -0.587100
     21 O2          12.6200     6.5900    21.9660 o          1 KWR      -0.512000
     22 C3           6.2410     1.4240    19.7710 ca         1 KWR      -0.049000
     23 H1           9.6150    -1.3870    21.3140 hn         1 KWR       0.152000
     24 H3           6.0360     1.4010    16.3980 h4         1 KWR       0.023100
     25 H4           7.8550    -1.3830    18.8300 h4         1 KWR       0.012100
     26 H5          11.7130    -2.1750    21.3260 ha         1 KWR       0.114000
     27 H6          14.9410     0.4380    22.4430 ha         1 KWR       0.133000
     28 H7          14.4810     4.7310    23.5140 hc         1 KWR       0.092700
     29 H8          13.1380     5.2320    24.5890 hc         1 KWR       0.092700
     30 H9          10.8940     1.8860    22.3880 ha         1 KWR       0.152000
     31 H10         11.3460     4.0960    21.4280 hn         1 KWR       0.341500
     32 H11          6.6750     0.0140    22.0270 hc         1 KWR       0.071200
     33 H12          7.4930    -1.3470    21.2500 hc         1 KWR       0.071200
     34 H13         14.1250    -1.7940    21.7100 ha         1 KWR       0.119000
     35 H14         11.8760     3.1900    23.9130 h2         1 KWR       0.071700
     36 H15          5.9510     1.9950    20.6440 ha         1 KWR       0.129000
     37 H2           5.3340     2.7670    18.3490 ha         1 KWR       0.128000
@<TRIPOS>BOND
     1     1     5 1   
     2     1    19 1   
     3     1    23 1   
     4     2     3 ar  
     5     2    22 ar  
     6     2    37 1   
     7     3    10 ar  
     8     3    24 1   
     9     4    10 ar  
    10     4    15 ar  
    11     4    25 1   
    12     5     6 ar  
    13     5     9 ar  
    14     6    16 ar  
    15     6    26 1   
    16     7    13 ar  
    17     7    16 ar  
    18     7    27 1   
    19     8    17 1   
    20     8    18 1   
    21     8    28 1   
    22     8    29 1   
    23     9    13 ar  
    24     9    30 1   
    25    11    17 1   
    26    11    18 1   
    27    11    31 1   
    28    12    15 1   
    29    12    19 1   
    30    12    32 1   
    31    12    33 1   
    32    13    14 1   
    33    14    17 1   
    34    15    22 ar  
    35    16    34 1   
    36    17    35 1   
    37    18    21 2   
    38    19    20 2   
    39    22    36 1   
@<TRIPOS>SUBSTRUCTURE
     1 KWR         1 TEMP              0 ****  ****    0 ROOT
