@<TRIPOS>MOLECULE
KWS
   28    28     1     0     0
SMALL
abcg2


@<TRIPOS>ATOM
      1 C            0.8960     2.3730     0.3320 c          1 KWS       0.713000
      2 N           -2.2800    -1.7160    -1.3020 n8         1 KWS      -1.012200
      3 O            0.7640     1.8540     1.4510 o          1 KWS      -0.714000
      4 C1          -0.1860    -0.8850    -0.4940 cc         1 KWS       0.503900
      5 C2           1.9880    -0.5800    -0.1330 c          1 KWS       0.542200
      6 N2           0.1730    -2.0540    -0.0950 nd         1 KWS      -0.649300
      7 O2           3.0890    -0.0790    -0.0570 o          1 KWS      -0.506000
      8 N3           0.8410     0.0360    -0.5620 n          1 KWS      -0.312300
      9 CA          -1.5990    -0.5300    -0.8310 c3         1 KWS       0.115200
     10 CB          -2.2490     0.1720     0.3940 c3         1 KWS       0.120300
     11 CA2          1.5400    -1.9700     0.1600 cd         1 KWS       0.020400
     12 CA3          0.8010     1.4370    -0.8970 c3         1 KWS      -0.050000
     13 CB2          2.3330    -2.9520     0.5860 c2         1 KWS      -0.258000
     14 OG1         -2.3260    -0.7020     1.4950 oh         1 KWS      -0.625000
     15 CG2         -3.6030     0.7630     0.0320 c3         1 KWS      -0.126100
     16 OXT          1.0750     3.5720     0.0520 o          1 KWS      -0.714000
     17 HA          -1.5930     0.1940    -1.6520 h1         1 KWS       0.076700
     18 HB          -1.5910     0.9820     0.7170 h1         1 KWS       0.139700
     19 HA3         -0.1220     1.6490    -1.4380 h1         1 KWS       0.036700
     20 HA3A         1.6150     1.6530    -1.5920 h1         1 KWS       0.036700
     21 HB2          1.9480    -3.9450     0.7750 ha         1 KWS       0.167500
     22 HB2A         3.3870    -2.7770     0.7530 ha         1 KWS       0.167500
     23 HOG1        -2.9910    -1.3740     1.3070 ho         1 KWS       0.413000
     24 HG2         -4.3110    -0.0050    -0.2880 hc         1 KWS       0.034700
     25 HG2A        -4.0370     1.2770     0.8890 hc         1 KWS       0.034700
     26 HG2B        -3.5060     1.4860    -0.7790 hc         1 KWS       0.034700
     27 HN          -2.2650    -2.4490    -0.6050 hn         1 KWS       0.404000
     28 HNA         -3.2470    -1.5110    -1.5170 hn         1 KWS       0.404000
@<TRIPOS>BOND
     1     1     3 1   
     2     1    12 1   
     3     1    16 1   
     4     2     9 1   
     5     2    27 1   
     6     2    28 1   
     7     4     6 2   
     8     4     8 1   
     9     4     9 1   
    10     5     7 2   
    11     5     8 1   
    12     5    11 1   
    13     6    11 1   
    14     8    12 1   
    15     9    10 1   
    16     9    17 1   
    17    10    14 1   
    18    10    15 1   
    19    10    18 1   
    20    11    13 2   
    21    12    19 1   
    22    12    20 1   
    23    13    21 1   
    24    13    22 1   
    25    14    23 1   
    26    15    24 1   
    27    15    25 1   
    28    15    26 1   
@<TRIPOS>SUBSTRUCTURE
     1 KWS         1 TEMP              0 ****  ****    0 ROOT
