@<TRIPOS>MOLECULE
KWS
   28    28     1     0     0
SMALL
No Charge or Current Charge


@<TRIPOS>ATOM
      1 C            1.0750     2.4460     0.2990 c          1 KWS       0.713000
      2 N           -2.3960    -1.7830    -1.3240 n8         1 KWS      -1.012200
      3 O            0.5080     2.2680     1.3670 o          1 KWS      -0.714000
      4 C1          -0.1380    -0.9210    -0.4320 cc         1 KWS       0.503900
      5 C2           2.0800    -0.5420    -0.1450 c          1 KWS       0.542200
      6 N2           0.2790    -2.1420    -0.0430 nd         1 KWS      -0.649300
      7 O2           3.1900    -0.0260    -0.0840 o          1 KWS      -0.506000
      8 N3           0.8830     0.0290    -0.5080 n          1 KWS      -0.312300
      9 CA          -1.6090    -0.6110    -0.7800 c3         1 KWS       0.115200
     10 CB          -2.3400     0.0900     0.4140 c3         1 KWS       0.120300
     11 CA2          1.6320    -1.9180     0.1360 cd         1 KWS       0.020400
     12 CA3          0.7640     1.4720    -0.8630 c3         1 KWS      -0.050000
     13 CB2          2.4810    -2.9010     0.5410 c2         1 KWS      -0.258000
     14 OG1         -2.6430    -0.8530     1.4570 oh         1 KWS      -0.625000
     15 CG2         -3.6530     0.7890    -0.0020 c3         1 KWS      -0.126100
     16 OXT          1.8740     3.3500     0.1000 o          1 KWS      -0.714000
     17 HA          -1.5810     0.1230    -1.5970 h1         1 KWS       0.076700
     18 HB          -1.6670     0.8710     0.8010 h1         1 KWS       0.139700
     19 HA3         -0.2470     1.6990    -1.2180 h1         1 KWS       0.036700
     20 HA3A         1.4580     1.6830    -1.6860 h1         1 KWS       0.036700
     21 HB2          2.1290    -3.9120     0.7440 ha         1 KWS       0.167500
     22 HB2A         3.5460    -2.7180     0.6810 ha         1 KWS       0.167500
     23 HOG1        -3.4120    -1.3810     1.1570 ho         1 KWS       0.413000
     24 HG2         -4.3910     0.0720    -0.3810 hc         1 KWS       0.034700
     25 HG2A        -4.0960     1.3150     0.8520 hc         1 KWS       0.034700
     26 HG2B        -3.4610     1.5300    -0.7880 hc         1 KWS       0.034700
     27 HN          -2.3240    -2.5590    -0.6540 hn         1 KWS       0.404000
     28 HNA         -3.3960    -1.5510    -1.3440 hn         1 KWS       0.404000
@<TRIPOS>BOND
     1     1     3 1   
     2     1    12 1   
     3     1    16 1   
     4     2     9 1   
     5     2    27 1   
     6     2    28 1   
     7     4     6 2   
     8     4     8 1   
     9     4     9 1   
    10     5     7 2   
    11     5     8 1   
    12     5    11 1   
    13     6    11 1   
    14     8    12 1   
    15     9    10 1   
    16     9    17 1   
    17    10    14 1   
    18    10    15 1   
    19    10    18 1   
    20    11    13 2   
    21    12    19 1   
    22    12    20 1   
    23    13    21 1   
    24    13    22 1   
    25    14    23 1   
    26    15    24 1   
    27    15    25 1   
    28    15    26 1   
@<TRIPOS>SUBSTRUCTURE
     1 KWS         1 TEMP              0 ****  ****    0 ROOT
