@<TRIPOS>MOLECULE
KWT
   55    59     1     0     0
SMALL
No Charge or Current Charge


@<TRIPOS>ATOM
      1 C1           0.9260    -0.3490     2.0970 c6         1 KWT       0.224300
      2 O1           0.6090    -0.8220     3.4550 os         1 KWT      -0.444100
      3 C9          -0.1630    -0.8250     1.0620 c6         1 KWT       0.022500
      4 C23          1.0690     1.2120     2.1680 c3         1 KWT       0.131600
      5 C2          -0.6460    -0.6420     4.0050 c          1 KWT       0.717700
      6 O2          -0.8480    -0.7000     5.2080 o          1 KWT      -0.480000
      7 C3          -1.6780    -0.3100     3.0180 cc         1 KWT      -0.288600
      8 C4          -1.4450    -0.3630     1.6530 cc         1 KWT      -0.095300
      9 C19         -2.9530     0.1630     3.1840 cd         1 KWT       0.247900
     10 C5          -2.5150     0.1790     1.0500 cd         1 KWT       0.051500
     11 C6          -2.5010     0.5200    -0.3830 c          1 KWT       0.509800
     12 O5          -3.5140     0.4880     1.9550 os         1 KWT      -0.184000
     13 O3          -3.4700     1.0580    -0.9050 o          1 KWT      -0.493100
     14 C7          -1.1690     0.2200    -1.0830 ce         1 KWT      -0.149400
     15 O6           2.3290     0.2010    -0.4730 os         1 KWT      -0.467100
     16 C11          1.2790    -0.5390    -1.1230 c6         1 KWT       0.208500
     17 C21          3.6490    -0.0730    -0.7120 c          1 KWT       0.597100
     18 C8          -0.0790    -0.2910    -0.4030 c2         1 KWT      -0.046400
     19 C15         -1.1040     0.6660    -2.5710 c5         1 KWT      -0.019500
     20 C10         -0.2110    -2.3840     1.0020 c3         1 KWT      -0.080100
     21 C12          1.2660    -0.1910    -2.6430 c6         1 KWT      -0.075400
     22 C13         -0.1450    -0.3620    -3.2590 c5         1 KWT      -0.164000
     23 C14         -0.5460    -1.8840    -3.1910 c3         1 KWT      -0.083100
     24 C18         -0.2990     0.1280    -4.7120 c          1 KWT       0.583100
     25 C16         -2.4030     0.5100    -3.4360 c5         1 KWT      -0.059400
     26 C17         -1.8170     0.3290    -4.8810 c5         1 KWT      -0.193400
     27 O4           0.5780     0.5650    -5.4460 o          1 KWT      -0.500100
     28 O7           4.0530    -0.9910    -1.4100 o          1 KWT      -0.475000
     29 C22          4.5590     0.8540     0.0750 c3         1 KWT      -0.161100
     30 O8           2.2520     1.5560     2.9170 os         1 KWT      -0.442000
     31 C24          2.5050     2.9670     3.0150 c3         1 KWT       0.143900
     32 HC1          1.9030    -0.7630     1.8110 h1         1 KWT       0.102700
     33 H231         0.1760     1.6460     2.6370 h1         1 KWT       0.041200
     34 H232         1.1320     1.6200     1.1530 h1         1 KWT       0.041200
     35 H19         -3.5270     0.3760     4.0770 h4         1 KWT       0.077100
     36 H11          1.5090    -1.6100    -1.0350 h1         1 KWT       0.079700
     37 H15         -0.7170     1.6920    -2.6420 hc         1 KWT       0.067700
     38 H101        -0.4430    -2.8230     1.9790 hc         1 KWT       0.053700
     39 H102        -0.9830    -2.7290     0.3040 hc         1 KWT       0.053700
     40 H103         0.7460    -2.8100     0.6800 hc         1 KWT       0.053700
     41 H121         1.5960     0.8490    -2.7780 hc         1 KWT       0.073700
     42 H122         1.9940    -0.8140    -3.1800 hc         1 KWT       0.073700
     43 H141         0.1850    -2.4990    -3.7300 hc         1 KWT       0.045367
     44 H142        -0.5920    -2.2690    -2.1660 hc         1 KWT       0.045367
     45 H143        -1.5210    -2.0970    -3.6410 hc         1 KWT       0.045367
     46 H161        -3.0030    -0.3590    -3.1370 hc         1 KWT       0.064700
     47 H162        -3.0520     1.3910    -3.3820 hc         1 KWT       0.064700
     48 H171        -2.2350    -0.5850    -5.3160 hc         1 KWT       0.076700
     49 H172        -2.0150     1.1610    -5.5650 hc         1 KWT       0.076700
     50 H221         5.6210     0.6560    -0.1070 hc         1 KWT       0.076367
     51 H222         4.2860     1.8920    -0.1450 hc         1 KWT       0.076367
     52 H223         4.3100     0.7680     1.1380 hc         1 KWT       0.076367
     53 H241         3.4170     3.1510     3.5980 h1         1 KWT       0.032033
     54 H242         2.6420     3.4080     2.0190 h1         1 KWT       0.032033
     55 H243         1.6720     3.4800     3.5120 h1         1 KWT       0.032033
@<TRIPOS>BOND
     1     1     2 1   
     2     1     3 1   
     3     1     4 1   
     4     1    32 1   
     5     2     5 1   
     6     3     8 1   
     7     3    18 1   
     8     3    20 1   
     9     4    30 1   
    10     4    33 1   
    11     4    34 1   
    12     5     6 2   
    13     5     7 1   
    14     7     8 1   
    15     7     9 2   
    16     8    10 2   
    17     9    12 1   
    18     9    35 1   
    19    10    11 1   
    20    10    12 1   
    21    11    13 2   
    22    11    14 1   
    23    14    18 2   
    24    14    19 1   
    25    15    16 1   
    26    15    17 1   
    27    16    18 1   
    28    16    21 1   
    29    16    36 1   
    30    17    28 2   
    31    17    29 1   
    32    19    22 1   
    33    19    25 1   
    34    19    37 1   
    35    20    38 1   
    36    20    39 1   
    37    20    40 1   
    38    21    22 1   
    39    21    41 1   
    40    21    42 1   
    41    22    23 1   
    42    22    24 1   
    43    23    43 1   
    44    23    44 1   
    45    23    45 1   
    46    24    26 1   
    47    24    27 2   
    48    25    26 1   
    49    25    46 1   
    50    25    47 1   
    51    26    48 1   
    52    26    49 1   
    53    29    50 1   
    54    29    51 1   
    55    29    52 1   
    56    30    31 1   
    57    31    53 1   
    58    31    54 1   
    59    31    55 1   
@<TRIPOS>SUBSTRUCTURE
     1 KWT         1 TEMP              0 ****  ****    0 ROOT
