@<TRIPOS>MOLECULE
KWT
   55    59     1     0     0
SMALL
abcg2


@<TRIPOS>ATOM
      1 C1           0.9730    -0.1580     2.0270 c6         1 KWT       0.224300
      2 O1           0.7210    -0.6700     3.3590 os         1 KWT      -0.444100
      3 C9          -0.0700    -0.7340     1.0270 c6         1 KWT       0.022500
      4 C23          1.0200     1.3590     2.0600 c3         1 KWT       0.131600
      5 C2          -0.4750    -0.6250     3.9640 c          1 KWT       0.717700
      6 O2          -0.5550    -0.8160     5.1470 o          1 KWT      -0.480000
      7 C3          -1.5770    -0.3590     3.0500 cc         1 KWT      -0.288600
      8 C4          -1.3470    -0.3860     1.6610 cc         1 KWT      -0.095300
      9 C19         -2.8490     0.1140     3.2010 cd         1 KWT       0.247900
     10 C5          -2.4490     0.0950     1.0680 cd         1 KWT       0.051500
     11 C6          -2.4670     0.5130    -0.3090 c          1 KWT       0.509800
     12 O5          -3.3820     0.3920     2.0090 os         1 KWT      -0.184000
     13 O3          -3.3990     1.1050    -0.8160 o          1 KWT      -0.493100
     14 C7          -1.1910     0.2160    -1.0370 ce         1 KWT      -0.149400
     15 O6           2.2810     0.0950    -0.5040 os         1 KWT      -0.467100
     16 C11          1.2030    -0.5310    -1.2060 c6         1 KWT       0.208500
     17 C21          3.5100    -0.4310    -0.5760 c          1 KWT       0.597100
     18 C8          -0.0680    -0.2380    -0.4220 c2         1 KWT      -0.046400
     19 C15         -1.1740     0.5410    -2.5130 c5         1 KWT      -0.019500
     20 C10          0.0680    -2.2770     0.9880 c3         1 KWT      -0.080100
     21 C12          1.2140    -0.0640    -2.6560 c6         1 KWT      -0.075400
     22 C13         -0.1470    -0.3200    -3.2510 c5         1 KWT      -0.164000
     23 C14         -0.5050    -1.8210    -3.2370 c3         1 KWT      -0.083100
     24 C18         -0.3620     0.1170    -4.6810 c          1 KWT       0.583100
     25 C16         -2.4210     0.4310    -3.4070 c5         1 KWT      -0.059400
     26 C17         -1.8200     0.5130    -4.8190 c5         1 KWT      -0.193400
     27 O4           0.4720     0.1370    -5.5520 o          1 KWT      -0.500100
     28 O7           3.7630    -1.4350    -1.1880 o          1 KWT      -0.475000
     29 C22          4.4920     0.4040     0.1850 c3         1 KWT      -0.161100
     30 O8           2.0540     1.7380     2.9240 os         1 KWT      -0.442000
     31 C24          2.2030     3.1340     3.0020 c3         1 KWT       0.143900
     32 HC1          1.9640    -0.5490     1.8120 h1         1 KWT       0.102700
     33 H231         0.0570     1.7780     2.3860 h1         1 KWT       0.041200
     34 H232         1.1930     1.7310     1.0440 h1         1 KWT       0.041200
     35 H19         -3.4570     0.3100     4.0700 h4         1 KWT       0.077100
     36 H11          1.3530    -1.6160    -1.1860 h1         1 KWT       0.079700
     37 H15         -0.8370     1.5850    -2.5990 hc         1 KWT       0.067700
     38 H101        -0.1510    -2.7180     1.9580 hc         1 KWT       0.053700
     39 H102        -0.6310    -2.7010     0.2680 hc         1 KWT       0.053700
     40 H103         1.0780    -2.5780     0.7130 hc         1 KWT       0.053700
     41 H121         1.4370     1.0060    -2.6940 hc         1 KWT       0.073700
     42 H122         2.0040    -0.5870    -3.1980 hc         1 KWT       0.073700
     43 H141         0.3260    -2.4030    -3.6350 hc         1 KWT       0.045367
     44 H142        -0.7190    -2.1830    -2.2310 hc         1 KWT       0.045367
     45 H143        -1.3810    -2.0520    -3.8450 hc         1 KWT       0.045367
     46 H161        -2.9430    -0.5140    -3.2520 hc         1 KWT       0.064700
     47 H162        -3.1350     1.2290    -3.2380 hc         1 KWT       0.064700
     48 H171        -2.3250    -0.1190    -5.5520 hc         1 KWT       0.076700
     49 H172        -1.8610     1.5340    -5.2060 hc         1 KWT       0.076700
     50 H221         5.4240    -0.1370     0.3240 hc         1 KWT       0.076367
     51 H222         4.7000     1.3180    -0.3740 hc         1 KWT       0.076367
     52 H223         4.0970     0.7060     1.1550 hc         1 KWT       0.076367
     53 H241         3.0180     3.3450     3.6930 h1         1 KWT       0.032033
     54 H242         2.4490     3.5740     2.0290 h1         1 KWT       0.032033
     55 H243         1.2950     3.6230     3.3740 h1         1 KWT       0.032033
@<TRIPOS>BOND
     1     1     2 1   
     2     1     3 1   
     3     1     4 1   
     4     1    32 1   
     5     2     5 1   
     6     3     8 1   
     7     3    18 1   
     8     3    20 1   
     9     4    30 1   
    10     4    33 1   
    11     4    34 1   
    12     5     6 2   
    13     5     7 1   
    14     7     8 1   
    15     7     9 2   
    16     8    10 2   
    17     9    12 1   
    18     9    35 1   
    19    10    11 1   
    20    10    12 1   
    21    11    13 2   
    22    11    14 1   
    23    14    18 2   
    24    14    19 1   
    25    15    16 1   
    26    15    17 1   
    27    16    18 1   
    28    16    21 1   
    29    16    36 1   
    30    17    28 2   
    31    17    29 1   
    32    19    22 1   
    33    19    25 1   
    34    19    37 1   
    35    20    38 1   
    36    20    39 1   
    37    20    40 1   
    38    21    22 1   
    39    21    41 1   
    40    21    42 1   
    41    22    23 1   
    42    22    24 1   
    43    23    43 1   
    44    23    44 1   
    45    23    45 1   
    46    24    26 1   
    47    24    27 2   
    48    25    26 1   
    49    25    46 1   
    50    25    47 1   
    51    26    48 1   
    52    26    49 1   
    53    29    50 1   
    54    29    51 1   
    55    29    52 1   
    56    30    31 1   
    57    31    53 1   
    58    31    54 1   
    59    31    55 1   
@<TRIPOS>SUBSTRUCTURE
     1 KWT         1 TEMP              0 ****  ****    0 ROOT
