@<TRIPOS>MOLECULE
KWU
   24    25     1     0     0
SMALL
No Charge or Current Charge


@<TRIPOS>ATOM
      1 N1         -12.3500    -9.6290     0.2180 nb         1 KWU      -0.624000
      2 C5         -15.8320   -10.4900     1.1470 ca         1 KWU      -0.084000
      3 C6         -15.7490   -11.8920     1.1480 ca         1 KWU      -0.077000
      4 C7         -14.5350   -12.5300     0.8400 ca         1 KWU      -0.075300
      5 C8         -13.4050   -11.7510     0.5300 ca         1 KWU      -0.077000
      6 C10        -14.7110    -9.6980     0.8390 ca         1 KWU       0.225000
      7 C12        -14.9080   -16.0700    -0.5380 c3         1 KWU       0.144100
      8 C11        -14.4470   -14.0500     0.8430 c3         1 KWU       0.200100
      9 C9         -13.4670   -10.3440     0.5230 ca         1 KWU       0.221000
     10 C3         -13.7050    -7.6390     0.5420 ca         1 KWU       0.295900
     11 C2         -12.4800    -8.2750     0.2300 ca         1 KWU       0.293900
     12 N12        -14.9590   -14.6000    -0.4260 n7         1 KWU      -0.859400
     13 N4         -14.8290    -8.3420     0.8490 nb         1 KWU      -0.623000
     14 H5         -16.7770   -10.0100     1.3860 ha         1 KWU       0.134000
     15 H6         -16.6310   -12.4850     1.3850 ha         1 KWU       0.132000
     16 H8         -12.4640   -12.2380     0.2900 ha         1 KWU       0.130000
     17 H122       -15.3120   -16.3980    -1.5060 h1         1 KWU       0.031033
     18 H123       -13.8740   -16.4340    -0.4600 h1         1 KWU       0.031033
     19 H120       -15.5000   -16.5440     0.2560 h1         1 KWU       0.031033
     20 H111       -15.0270   -14.4400     1.6910 h1         1 KWU       0.040200
     21 H112       -13.4010   -14.3510     0.9990 h1         1 KWU       0.040200
     22 H3         -13.7870    -6.5530     0.5460 h4         1 KWU       0.029100
     23 H2         -11.5930    -7.6920    -0.0120 h4         1 KWU       0.028100
     24 H121       -14.4000   -14.1990    -1.1900 hn         1 KWU       0.412000
@<TRIPOS>BOND
     1     1     9 ar  
     2     1    11 ar  
     3     2     3 ar  
     4     2     6 ar  
     5     2    14 1   
     6     3     4 ar  
     7     3    15 1   
     8     4     5 ar  
     9     4     8 1   
    10     5     9 ar  
    11     5    16 1   
    12     6     9 ar  
    13     6    13 ar  
    14     7    12 1   
    15     7    17 1   
    16     7    18 1   
    17     7    19 1   
    18     8    12 1   
    19     8    20 1   
    20     8    21 1   
    21    10    11 ar  
    22    10    13 ar  
    23    10    22 1   
    24    11    23 1   
    25    12    24 1   
@<TRIPOS>SUBSTRUCTURE
     1 KWU         1 TEMP              0 ****  ****    0 ROOT
