@<TRIPOS>MOLECULE
KWU
   24    25     1     0     0
SMALL
abcg2


@<TRIPOS>ATOM
      1 N1         -12.3220    -9.5350     0.4030 nb         1 KWU      -0.624000
      2 C5         -15.8120   -10.5800     0.9320 ca         1 KWU      -0.084000
      3 C6         -15.6540   -11.9360     0.8980 ca         1 KWU      -0.077000
      4 C7         -14.3780   -12.5260     0.7090 ca         1 KWU      -0.075300
      5 C8         -13.2850   -11.7180     0.5430 ca         1 KWU      -0.077000
      6 C10        -14.6930    -9.7340     0.7660 ca         1 KWU       0.225000
      7 C12        -15.0820   -16.0450    -0.3360 c3         1 KWU       0.144100
      8 C11        -14.2550   -14.0230     0.6830 c3         1 KWU       0.200100
      9 C9         -13.4170   -10.3120     0.5700 ca         1 KWU       0.221000
     10 C3         -13.7800    -7.6670     0.6330 ca         1 KWU       0.295900
     11 C2         -12.5040    -8.2440     0.4340 ca         1 KWU       0.293900
     12 N12        -15.1170   -14.5960    -0.3310 n7         1 KWU      -0.859400
     13 N4         -14.8520    -8.3910     0.7950 nb         1 KWU      -0.623000
     14 H5         -16.7860   -10.1310     1.0840 ha         1 KWU       0.134000
     15 H6         -16.5150   -12.5800     1.0210 ha         1 KWU       0.132000
     16 H8         -12.2990   -12.1390     0.3880 ha         1 KWU       0.130000
     17 H122       -15.7000   -16.4240    -1.1490 h1         1 KWU       0.031033
     18 H123       -14.0760   -16.4710    -0.4500 h1         1 KWU       0.031033
     19 H120       -15.4950   -16.4280     0.5990 h1         1 KWU       0.031033
     20 H111       -14.5690   -14.4220     1.6540 h1         1 KWU       0.040200
     21 H112       -13.1980   -14.3040     0.5660 h1         1 KWU       0.040200
     22 H3         -13.8870    -6.5880     0.6530 h4         1 KWU       0.029100
     23 H2         -11.6380    -7.6060     0.3010 h4         1 KWU       0.028100
     24 H121       -14.8280   -14.2530    -1.2380 hn         1 KWU       0.412000
@<TRIPOS>BOND
     1     1     9 ar  
     2     1    11 ar  
     3     2     3 ar  
     4     2     6 ar  
     5     2    14 1   
     6     3     4 ar  
     7     3    15 1   
     8     4     5 ar  
     9     4     8 1   
    10     5     9 ar  
    11     5    16 1   
    12     6     9 ar  
    13     6    13 ar  
    14     7    12 1   
    15     7    17 1   
    16     7    18 1   
    17     7    19 1   
    18     8    12 1   
    19     8    20 1   
    20     8    21 1   
    21    10    11 ar  
    22    10    13 ar  
    23    10    22 1   
    24    11    23 1   
    25    12    24 1   
@<TRIPOS>SUBSTRUCTURE
     1 KWU         1 TEMP              0 ****  ****    0 ROOT
