@<TRIPOS>MOLECULE
KWV
   28    29     1     0     0
SMALL
No Charge or Current Charge


@<TRIPOS>ATOM
      1 C5          12.2240     7.2510   -34.1020 c2         1 KWV       0.400900
      2 C8          14.0740     8.6190   -34.3980 c5         1 KWV       0.195800
      3 C10         15.4710     6.6920   -33.4840 ca         1 KWV       0.352000
      4 C13         17.9140     5.2520   -33.4970 ca         1 KWV       0.075000
      5 C15         16.6890     4.5730   -33.3440 ca         1 KWV       0.162000
      6 C17         15.4820     5.2890   -33.3350 ca         1 KWV      -0.142000
      7 C1           8.5400     6.5670   -34.7680 c3         1 KWV      -0.174100
      8 C11         16.7060     7.3610   -33.6270 ca         1 KWV      -0.179000
      9 C12         17.9190     6.6480   -33.6360 ca         1 KWV      -0.058000
     10 C2           9.9070     7.1500   -35.1010 c          1 KWV       0.612100
     11 C9          12.6880     8.3350   -35.0220 c5         1 KWV      -0.144700
     12 N4          10.8790     6.8770   -34.1640 ns         1 KWV      -0.411400
     13 N6          13.0540     6.8170   -33.2340 n2         1 KWV      -0.460400
     14 N7          14.2530     7.4430   -33.4740 nh         1 KWV      -0.513500
     15 O3          10.0950     7.7920   -36.1240 o          1 KWV      -0.578100
     16 Cl14        19.4490     4.3820   -33.5110 cl         1 KWV      -0.187000
     17 Cl16        16.6410     2.8190   -33.1600 cl         1 KWV      -0.189000
     18 H2          14.8520     8.6740   -35.1730 h1         1 KWV       0.059700
     19 H3          14.0830     9.5630   -33.8360 h1         1 KWV       0.059700
     20 H4          14.5520     4.7430   -33.2160 ha         1 KWV       0.150000
     21 H5           7.7870     6.7960   -35.5310 hc         1 KWV       0.069700
     22 H6           8.6390     5.4870   -34.6120 hc         1 KWV       0.069700
     23 H7           8.2310     6.9190   -33.7770 hc         1 KWV       0.069700
     24 H8          16.7310     8.4430   -33.7210 ha         1 KWV       0.119000
     25 H9          18.8620     7.1790   -33.7480 ha         1 KWV       0.129000
     26 H10         12.7730     7.9730   -36.0510 hc         1 KWV       0.089700
     27 H11         12.0430     9.2200   -35.0020 hc         1 KWV       0.089700
     28 H12         10.5680     6.3000   -33.3960 hn         1 KWV       0.335500
@<TRIPOS>BOND
     1     1    11 1   
     2     1    12 1   
     3     1    13 2   
     4     2    11 1   
     5     2    14 1   
     6     2    18 1   
     7     2    19 1   
     8     3     6 ar  
     9     3     8 ar  
    10     3    14 1   
    11     4     5 ar  
    12     4     9 ar  
    13     4    16 1   
    14     5     6 ar  
    15     5    17 1   
    16     6    20 1   
    17     7    10 1   
    18     7    21 1   
    19     7    22 1   
    20     7    23 1   
    21     8     9 ar  
    22     8    24 1   
    23     9    25 1   
    24    10    12 1   
    25    10    15 2   
    26    11    26 1   
    27    11    27 1   
    28    12    28 1   
    29    13    14 1   
@<TRIPOS>SUBSTRUCTURE
     1 KWV         1 TEMP              0 ****  ****    0 ROOT
