@<TRIPOS>MOLECULE
KWV
   28    29     1     0     0
SMALL
abcg2


@<TRIPOS>ATOM
      1 C5          12.1810     7.2100   -34.3810 c2         1 KWV       0.400900
      2 C8          14.1550     8.4080   -34.7800 c5         1 KWV       0.195800
      3 C10         15.4890     6.5980   -33.6600 ca         1 KWV       0.352000
      4 C13         17.9480     5.3650   -33.0750 ca         1 KWV       0.075000
      5 C15         16.7440     4.7260   -32.7850 ca         1 KWV       0.162000
      6 C17         15.5280     5.3230   -33.0720 ca         1 KWV      -0.142000
      7 C1           8.5030     6.5270   -34.7980 c3         1 KWV      -0.174100
      8 C11         16.7050     7.2400   -33.9550 ca         1 KWV      -0.179000
      9 C12         17.9100     6.6250   -33.6610 ca         1 KWV      -0.058000
     10 C2           9.7660     7.3480   -34.8730 c          1 KWV       0.612100
     11 C9          12.6310     8.5470   -34.9010 c5         1 KWV      -0.144700
     12 N4          10.8900     6.7200   -34.4000 ns         1 KWV      -0.411400
     13 N6          13.1120     6.5070   -33.8480 n2         1 KWV      -0.460400
     14 N7          14.2960     7.2240   -33.9190 nh         1 KWV      -0.513500
     15 O3           9.7800     8.4810   -35.3350 o          1 KWV      -0.578100
     16 CL14        19.4890     4.6290   -32.7250 cl         1 KWV      -0.187000
     17 CL16        16.7280     3.1420   -32.0540 cl         1 KWV      -0.189000
     18 H2          14.6230     8.2250   -35.7520 h1         1 KWV       0.059700
     19 H3          14.6240     9.2780   -34.3240 h1         1 KWV       0.059700
     20 H4          14.6110     4.8060   -32.8400 ha         1 KWV       0.150000
     21 H5           7.7130     7.1410   -34.3660 hc         1 KWV       0.069700
     22 H6           8.2040     6.2640   -35.8150 hc         1 KWV       0.069700
     23 H7           8.6170     5.6140   -34.2160 hc         1 KWV       0.069700
     24 H8          16.7130     8.2190   -34.4100 ha         1 KWV       0.119000
     25 H9          18.8390     7.1280   -33.8940 ha         1 KWV       0.129000
     26 H10         12.2980     8.7310   -35.9190 hc         1 KWV       0.089700
     27 H11         12.2300     9.3460   -34.2750 hc         1 KWV       0.089700
     28 H12         10.7780     5.7930   -34.0120 hn         1 KWV       0.335500
@<TRIPOS>BOND
     1     1    11 1   
     2     1    12 1   
     3     1    13 2   
     4     2    11 1   
     5     2    14 1   
     6     2    18 1   
     7     2    19 1   
     8     3     6 ar  
     9     3     8 ar  
    10     3    14 1   
    11     4     5 ar  
    12     4     9 ar  
    13     4    16 1   
    14     5     6 ar  
    15     5    17 1   
    16     6    20 1   
    17     7    10 1   
    18     7    21 1   
    19     7    22 1   
    20     7    23 1   
    21     8     9 ar  
    22     8    24 1   
    23     9    25 1   
    24    10    12 1   
    25    10    15 2   
    26    11    26 1   
    27    11    27 1   
    28    12    28 1   
    29    13    14 1   
@<TRIPOS>SUBSTRUCTURE
     1 KWV         1 TEMP              0 ****  ****    0 ROOT
