@<TRIPOS>MOLECULE
KWW
   44    46     1     0     0
SMALL
bcc


@<TRIPOS>ATOM
      1 C10         47.4510    28.6460   -34.3330 c3         1 KWW       0.051300
      2 C12         45.1320    29.0330   -31.7360 cc         1 KWW       0.384800
      3 C13         44.6720    28.5790   -30.4180 ca         1 KWW      -0.119500
      4 C15         44.1930    26.7790   -28.8830 ca         1 KWW      -0.121000
      5 C1          41.3860    31.5210   -31.3820 c3         1 KWW       0.148300
      6 C2          41.4680    32.1080   -29.9930 ca         1 KWW      -0.116300
      7 C3          40.5540    31.7400   -29.0130 ca         1 KWW      -0.114500
      8 C4          40.6210    32.2890   -27.7380 ca         1 KWW      -0.129000
      9 C5          41.6100    33.2100   -27.4290 ca         1 KWW      -0.124000
     10 C6          42.5340    33.5780   -28.4010 ca         1 KWW      -0.129000
     11 C7          42.4620    33.0320   -29.6730 ca         1 KWW      -0.114500
     12 C8          44.6810    30.1030   -32.5490 cc         1 KWW      -0.333900
     13 C9          45.5170    30.0640   -33.6470 cd         1 KWW      -0.079300
     14 C11         48.7190    29.4360   -34.0520 c3         1 KWW       0.133800
     15 C14         44.6030    27.2160   -30.1300 ca         1 KWW      -0.092000
     16 C16         43.8410    27.6970   -27.9040 ca         1 KWW       0.029400
     17 C17         43.9100    29.0580   -28.1800 ca         1 KWW       0.020400
     18 C18         44.3300    29.4940   -29.4260 ca         1 KWW      -0.104000
     19 CL1         43.4770    30.2220   -26.9920 cl         1 KWW      -0.070400
     20 CL          43.3190    27.1380   -26.3620 cl         1 KWW      -0.079400
     21 N3          46.1420    28.4080   -32.3150 nd         1 KWW      -0.504800
     22 N1          46.3510    29.0350   -33.4680 na         1 KWW       0.115400
     23 N2          49.2500    29.1460   -32.7320 n8         1 KWW      -0.879800
     24 O           43.6420    32.1650   -32.9810 o          1 KWW      -0.618100
     25 N           42.5160    30.6760   -31.7020 ns         1 KWW      -0.565900
     26 H1          47.1360    28.8040   -35.3630 h1         1 KWW       0.077200
     27 H2          47.6190    27.5810   -34.1860 h1         1 KWW       0.077200
     28 H3          44.1370    25.7210   -28.6700 ha         1 KWW       0.152000
     29 H4          41.3310    32.3150   -32.1270 h1         1 KWW       0.063700
     30 H5          40.4770    30.9260   -31.4800 h1         1 KWW       0.063700
     31 H6          39.7780    31.0210   -29.2470 ha         1 KWW       0.134500
     32 H7          39.9000    31.9940   -26.9860 ha         1 KWW       0.131000
     33 H8          41.6640    33.6390   -26.4370 ha         1 KWW       0.130000
     34 H9          43.3100    34.2960   -28.1680 ha         1 KWW       0.131000
     35 H10         43.1770    33.3370   -30.4270 ha         1 KWW       0.134500
     36 H11         45.5420    30.6780   -34.5320 h4         1 KWW       0.189000
     37 H12         48.5160    30.5010   -34.2340 h1         1 KWW       0.039200
     38 H13         49.4540    29.1300   -34.7980 h1         1 KWW       0.039200
     39 H14         44.8600    26.4890   -30.8880 ha         1 KWW       0.153000
     40 H15         44.3950    30.5580   -29.6090 ha         1 KWW       0.161000
     41 H16         50.1230    29.6420   -32.6110 hn         1 KWW       0.348300
     42 H17         48.6300    29.5130   -32.0210 hn         1 KWW       0.348300
     43 H19         42.5150    29.7500   -31.3060 hn         1 KWW       0.320500
     44 C           43.5780    31.0760   -32.4220 c          1 KWW       0.717700
@<TRIPOS>BOND
     1     1    14 1   
     2     1    22 1   
     3     1    26 1   
     4     1    27 1   
     5     2     3 1   
     6     2    12 1   
     7     2    21 2   
     8     3    15 ar  
     9     3    18 ar  
    10     4    15 ar  
    11     4    16 ar  
    12     4    28 1   
    13     5     6 1   
    14     5    25 1   
    15     5    29 1   
    16     5    30 1   
    17     6     7 ar  
    18     6    11 ar  
    19     7     8 ar  
    20     7    31 1   
    21     8     9 ar  
    22     8    32 1   
    23     9    10 ar  
    24     9    33 1   
    25    10    11 ar  
    26    10    34 1   
    27    11    35 1   
    28    12    13 2   
    29    12    44 1   
    30    13    22 1   
    31    13    36 1   
    32    14    23 1   
    33    14    37 1   
    34    14    38 1   
    35    15    39 1   
    36    16    17 ar  
    37    16    20 1   
    38    17    18 ar  
    39    17    19 1   
    40    18    40 1   
    41    21    22 1   
    42    23    41 1   
    43    23    42 1   
    44    24    44 2   
    45    25    43 1   
    46    25    44 1   
@<TRIPOS>SUBSTRUCTURE
     1 KWW         1 TEMP              0 ****  ****    0 ROOT
