@<TRIPOS>MOLECULE
KWW
   44    46     1     0     0
SMALL
No Charge or Current Charge


@<TRIPOS>ATOM
      1 C10         47.4960    28.4400   -34.3170 c3         1 KWW       0.080600
      2 C12         45.0490    28.9240   -31.8020 cc         1 KWW       0.319500
      3 C13         44.5180    28.5570   -30.4760 ca         1 KWW      -0.119500
      4 C15         43.9860    26.8180   -28.8300 ca         1 KWW      -0.103000
      5 C1          41.5150    31.6030   -31.3630 c3         1 KWW       0.148300
      6 C2          41.4770    32.1330   -29.9380 ca         1 KWW      -0.116300
      7 C3          40.5860    31.5820   -28.9960 ca         1 KWW      -0.096500
      8 C4          40.5380    32.0900   -27.6860 ca         1 KWW      -0.111000
      9 C5          41.3820    33.1480   -27.3100 ca         1 KWW      -0.106000
     10 C6          42.2780    33.6960   -28.2440 ca         1 KWW      -0.111000
     11 C7          42.3240    33.1900   -29.5550 ca         1 KWW      -0.096500
     12 C8          44.8210    30.1150   -32.5370 cc         1 KWW      -0.268600
     13 C9          45.7310    30.1290   -33.5560 cd         1 KWW      -0.112000
     14 C11         48.7770    29.3120   -34.3090 c3         1 KWW       0.133800
     15 C14         44.4150    27.1940   -30.1150 ca         1 KWW      -0.074000
     16 C16         43.6980    27.7970   -27.8670 ca         1 KWW       0.121000
     17 C17         43.8560    29.1580   -28.1900 ca         1 KWW       0.112000
     18 C18         44.2690    29.5330   -29.4800 ca         1 KWW      -0.086000
     19 Cl1         43.5890    30.4110   -26.9790 cl         1 KWW      -0.162000
     20 Cl          43.1810    27.2920   -26.2580 cl         1 KWW      -0.171000
     21 N3          46.0050    28.1860   -32.3380 nd         1 KWW      -0.504800
     22 N1          46.4310    28.9320   -33.4250 na         1 KWW       0.136800
     23 N2          49.5170    29.2640   -33.0230 n8         1 KWW      -0.990200
     24 O           43.7870    32.2010   -33.0030 o          1 KWW      -0.618100
     25 N           42.7040    30.7840   -31.6000 ns         1 KWW      -0.498900
     26 H1          47.0930    28.4160   -35.3370 h1         1 KWW       0.077200
     27 H2          47.7530    27.4110   -34.0400 h1         1 KWW       0.077200
     28 H3          43.8890    25.7650   -28.5770 ha         1 KWW       0.134000
     29 H4          41.4880    32.4460   -32.0670 h1         1 KWW       0.063700
     30 H5          40.6260    30.9880   -31.5570 h1         1 KWW       0.063700
     31 H6          39.9270    30.7630   -29.2770 ha         1 KWW       0.116500
     32 H7          39.8480    31.6620   -26.9620 ha         1 KWW       0.113000
     33 H8          41.3460    33.5400   -26.2960 ha         1 KWW       0.112000
     34 H9          42.9340    34.5130   -27.9530 ha         1 KWW       0.113000
     35 H10         43.0170    33.6220   -30.2740 ha         1 KWW       0.116500
     36 H11         45.8960    30.8340   -34.3630 h4         1 KWW       0.171000
     37 H12         48.5100    30.3550   -34.5280 h1         1 KWW       0.039200
     38 H13         49.4490    28.9620   -35.1050 h1         1 KWW       0.039200
     39 H14         44.6480    26.4170   -30.8410 ha         1 KWW       0.135000
     40 H15         44.4410    30.5870   -29.6820 ha         1 KWW       0.143000
     41 H16         50.2980    29.9320   -33.0560 hn         1 KWW       0.403500
     42 H17         48.9160    29.6320   -32.2750 hn         1 KWW       0.403500
     43 H19         42.7470    29.8690   -31.1710 hn         1 KWW       0.320500
     44 C           43.7650    31.1410   -32.3940 c          1 KWW       0.650700
@<TRIPOS>BOND
     1     1    14 1   
     2     1    22 1   
     3     1    26 1   
     4     1    27 1   
     5     2     3 1   
     6     2    12 1   
     7     2    21 2   
     8     3    15 ar  
     9     3    18 ar  
    10     4    15 ar  
    11     4    16 ar  
    12     4    28 1   
    13     5     6 1   
    14     5    25 1   
    15     5    29 1   
    16     5    30 1   
    17     6     7 ar  
    18     6    11 ar  
    19     7     8 ar  
    20     7    31 1   
    21     8     9 ar  
    22     8    32 1   
    23     9    10 ar  
    24     9    33 1   
    25    10    11 ar  
    26    10    34 1   
    27    11    35 1   
    28    12    13 2   
    29    12    44 1   
    30    13    22 1   
    31    13    36 1   
    32    14    23 1   
    33    14    37 1   
    34    14    38 1   
    35    15    39 1   
    36    16    17 ar  
    37    16    20 1   
    38    17    18 ar  
    39    17    19 1   
    40    18    40 1   
    41    21    22 1   
    42    23    41 1   
    43    23    42 1   
    44    24    44 2   
    45    25    43 1   
    46    25    44 1   
@<TRIPOS>SUBSTRUCTURE
     1 KWW         1 TEMP              0 ****  ****    0 ROOT
