@<TRIPOS>MOLECULE
KWX
   34    35     1     0     0
SMALL
abcg2


@<TRIPOS>ATOM
      1 C10         -0.0940     6.4300    18.7150 ca         1 KWX       0.114000
      2 O14          7.0260     5.4730    14.2490 o          1 KWX      -0.731000
      3 C15          1.2600     7.8730    17.3800 ca         1 KWX      -0.161000
      4 C17          6.6830     8.7390    17.9030 c6         1 KWX      -0.070400
      5 C18          7.9690     6.3120    16.8340 c6         1 KWX      -0.056400
      6 C19          8.6440     7.1790    17.8910 c6         1 KWX      -0.074400
      7 C20          7.6220     7.9010    18.7610 c6         1 KWX      -0.069400
      8 C1           4.8710     7.0990    17.3880 c          1 KWX       0.659100
      9 C2           5.9820     7.9350    16.7910 c6         1 KWX      -0.100700
     10 C3           6.9830     7.1090    15.9770 c6         1 KWX      -0.178700
     11 N4           3.6370     7.6860    17.3200 ns         1 KWX      -0.141000
     12 C5           6.2900     6.2340    14.9080 c          1 KWX       0.723000
     13 C6           1.0420     5.7750    19.1490 ca         1 KWX       0.103000
     14 C7           2.2980     6.1570    18.7050 ca         1 KWX      -0.114000
     15 C8           2.4200     7.2180    17.8070 ca         1 KWX       0.021000
     16 O9           5.0560     6.0440    17.9680 o          1 KWX      -0.585100
     17 O11          5.0560     6.3700    14.7740 o          1 KWX      -0.731000
     18 C12          0.0120     7.4850    17.8300 ca         1 KWX      -0.117000
     19 CL13         0.8850     4.4680    20.2620 cl         1 KWX      -0.197000
     20 F16         -1.2940     6.0370    19.1540 f          1 KWX      -0.181000
     21 H27          1.3330     8.6980    16.6820 ha         1 KWX       0.115000
     22 H30          7.4600     5.4790    17.3230 hc         1 KWX       0.055200
     23 H31          8.7240     5.8730    16.1800 hc         1 KWX       0.055200
     24 H32          9.3050     6.5680    18.5110 hc         1 KWX       0.018200
     25 H33          9.2820     7.9230    17.3990 hc         1 KWX       0.018200
     26 H34          8.1270     8.5500    19.4800 hc         1 KWX       0.030200
     27 H35          7.0560     7.1730    19.3480 hc         1 KWX       0.030200
     28 H21          5.5280     8.6610    16.1120 hc         1 KWX       0.048700
     29 H22          7.5860     7.8480    15.4280 hc         1 KWX       0.027700
     30 H23          3.5740     8.5170    16.7510 hn         1 KWX       0.150000
     31 H24          3.1650     5.6280    19.0640 ha         1 KWX       0.169000
     32 H25         -0.8780     7.9980    17.4890 ha         1 KWX       0.120000
     33 H29          7.2690     9.5250    17.4150 hc         1 KWX       0.024200
     34 H28          5.9420     9.2520    18.5220 hc         1 KWX       0.024200
@<TRIPOS>BOND
     1     1    13 ar  
     2     1    18 ar  
     3     1    20 1   
     4     2    12 1   
     5     3    15 ar  
     6     3    18 ar  
     7     3    21 1   
     8     4     7 1   
     9     4     9 1   
    10     4    33 1   
    11     4    34 1   
    12     5     6 1   
    13     5    10 1   
    14     5    22 1   
    15     5    23 1   
    16     6     7 1   
    17     6    24 1   
    18     6    25 1   
    19     7    26 1   
    20     7    27 1   
    21     8     9 1   
    22     8    11 1   
    23     8    16 2   
    24     9    10 1   
    25     9    28 1   
    26    10    12 1   
    27    10    29 1   
    28    11    15 1   
    29    11    30 1   
    30    12    17 1   
    31    13    14 ar  
    32    13    19 1   
    33    14    15 ar  
    34    14    31 1   
    35    18    32 1   
@<TRIPOS>SUBSTRUCTURE
     1 KWX         1 TEMP              0 ****  ****    0 ROOT
