@<TRIPOS>MOLECULE
KWX
   34    35     1     0     0
SMALL
No Charge or Current Charge


@<TRIPOS>ATOM
      1 C10         -0.3100     6.4780    18.4820 ca         1 KWX       0.114000
      2 O14          6.2200     6.3810    13.8910 o          1 KWX      -0.731000
      3 C15          1.2270     7.9010    17.2480 ca         1 KWX      -0.161000
      4 C17          6.9300     8.8510    17.9110 c6         1 KWX      -0.070400
      5 C18          7.9460     6.1980    16.9080 c6         1 KWX      -0.056400
      6 C19          8.8250     7.1230    17.7930 c6         1 KWX      -0.074400
      7 C20          7.9690     8.0290    18.7170 c6         1 KWX      -0.069400
      8 C1           4.8990     7.2220    17.7580 c          1 KWX       0.659100
      9 C2           6.0610     7.9350    17.0030 c6         1 KWX      -0.100700
     10 C3           6.9300     7.0260    16.0720 c6         1 KWX      -0.178700
     11 N4           3.6250     7.5970    17.3470 ns         1 KWX      -0.141000
     12 C5           6.0980     6.1620    15.0870 c          1 KWX       0.723000
     13 C6           0.7800     5.7490    18.9950 ca         1 KWX       0.103000
     14 C7           2.0930     6.1000    18.6340 ca         1 KWX      -0.114000
     15 C8           2.3280     7.1860    17.7590 ca         1 KWX       0.021000
     16 O9           5.1090     6.4220    18.6640 o          1 KWX      -0.585100
     17 O11          5.3580     5.3060    15.5440 o          1 KWX      -0.731000
     18 C12         -0.0870     7.5520    17.6080 ca         1 KWX      -0.117000
     19 Cl13         0.5190     4.3900    20.0880 cl         1 KWX      -0.197000
     20 F16         -1.5780     6.1490    18.8220 f          1 KWX      -0.181000
     21 H27          1.3890     8.7370    16.5690 ha         1 KWX       0.115000
     22 H30          7.4190     5.4690    17.5400 hc         1 KWX       0.055200
     23 H31          8.5900     5.6130    16.2370 hc         1 KWX       0.055200
     24 H32          9.5080     6.5140    18.4010 hc         1 KWX       0.018200
     25 H33          9.4590     7.7500    17.1510 hc         1 KWX       0.018200
     26 H34          8.6260     8.7110    19.2750 hc         1 KWX       0.030200
     27 H35          7.4610     7.4120    19.4710 hc         1 KWX       0.030200
     28 H21          5.5520     8.6220    16.3120 hc         1 KWX       0.048700
     29 H22          7.5250     7.7050    15.4440 hc         1 KWX       0.027700
     30 H23          3.6160     8.2900    16.6100 hn         1 KWX       0.150000
     31 H24          2.9080     5.5100    19.0380 ha         1 KWX       0.169000
     32 H25         -0.9300     8.1120    17.2110 ha         1 KWX       0.120000
     33 H29          7.4600     9.5840    17.2870 hc         1 KWX       0.024200
     34 H28          6.2920     9.4300    18.5930 hc         1 KWX       0.024200
@<TRIPOS>BOND
     1     1    13 ar  
     2     1    18 ar  
     3     1    20 1   
     4     2    12 1   
     5     3    15 ar  
     6     3    18 ar  
     7     3    21 1   
     8     4     7 1   
     9     4     9 1   
    10     4    33 1   
    11     4    34 1   
    12     5     6 1   
    13     5    10 1   
    14     5    22 1   
    15     5    23 1   
    16     6     7 1   
    17     6    24 1   
    18     6    25 1   
    19     7    26 1   
    20     7    27 1   
    21     8     9 1   
    22     8    11 1   
    23     8    16 2   
    24     9    10 1   
    25     9    28 1   
    26    10    12 1   
    27    10    29 1   
    28    11    15 1   
    29    11    30 1   
    30    12    17 1   
    31    13    14 ar  
    32    13    19 1   
    33    14    15 ar  
    34    14    31 1   
    35    18    32 1   
@<TRIPOS>SUBSTRUCTURE
     1 KWX         1 TEMP              0 ****  ****    0 ROOT
