@<TRIPOS>MOLECULE
KWY
   55    58     1     0     0
SMALL
No Charge or Current Charge


@<TRIPOS>ATOM
      1 C1           7.2360     1.0260     1.4190 c3         1 KWY      -0.083767
      2 C2           6.6630     0.3960     0.1200 c3         1 KWY      -0.004700
      3 C3           7.2940     1.0970    -1.1140 c3         1 KWY      -0.083767
      4 C4           7.0870    -1.1000     0.0880 c3         1 KWY      -0.083767
      5 C5           5.1230     0.5930     0.0900 ca         1 KWY      -0.035300
      6 C6           4.5860     1.8990     0.1150 ca         1 KWY      -0.119500
      7 C7           3.1990     2.1210     0.0890 ca         1 KWY      -0.068500
      8 C8           2.2920     1.0410     0.0380 ca         1 KWY      -0.159600
      9 C11          0.8000     1.3230     0.0110 c          1 KWY       0.628700
     10 N13         -0.0260     0.2140    -0.0290 ns         1 KWY      -0.402100
     11 C15         -2.3290     1.1550    -0.0600 cc         1 KWY      -0.219000
     12 C16         -3.6180     0.5620    -0.0930 cc         1 KWY       0.322500
     13 C19         -1.5690    -2.2290    -0.0980 ca         1 KWY       0.007800
     14 C21         -0.2900    -3.9580    -1.2530 ca         1 KWY      -0.104000
     15 C23         -0.8370    -4.2220     1.1040 ca         1 KWY      -0.104000
     16 C24         -1.5070    -2.9860     1.0880 ca         1 KWY      -0.105500
     17 C27         -6.1490     3.4130    -0.0700 ca         1 KWY      -0.117500
     18 C30         -6.1290     0.6100    -0.1280 ca         1 KWY      -0.088000
     19 C9           2.8220    -0.2710     0.0130 ca         1 KWY      -0.068500
     20 C10          4.2110    -0.4880     0.0390 ca         1 KWY      -0.119500
     21 O12          0.3630     2.4660     0.0240 o          1 KWY      -0.563100
     22 C14         -1.4150     0.1470    -0.0640 cd         1 KWY       0.011600
     23 N17         -3.5740    -0.7640    -0.1160 nd         1 KWY      -0.509800
     24 N18         -2.2140    -0.9940    -0.1080 na         1 KWY       0.185000
     25 C20         -0.9590    -2.7210    -1.2700 ca         1 KWY      -0.105500
     26 C22         -0.2290    -4.7070    -0.0660 ca         1 KWY      -0.105000
     27 C25         -4.8950     1.3040    -0.0960 ca         1 KWY      -0.118500
     28 C26         -4.9260     2.7190    -0.0670 ca         1 KWY      -0.088000
     29 C28         -7.3610     2.7090    -0.1030 ca         1 KWY      -0.105000
     30 C29         -7.3500     1.3070    -0.1320 ca         1 KWY      -0.117500
     31 H1           6.7750     0.5710     2.3040 hc         1 KWY       0.037478
     32 H2           8.3200     0.8730     1.4850 hc         1 KWY       0.037478
     33 H3           7.0520     2.1060     1.4610 hc         1 KWY       0.037478
     34 H4           7.1110     2.1780    -1.1030 hc         1 KWY       0.037478
     35 H5           8.3800     0.9460    -1.1380 hc         1 KWY       0.037478
     36 H6           6.8750     0.6930    -2.0430 hc         1 KWY       0.037478
     37 H7           6.7320    -1.5920    -0.8260 hc         1 KWY       0.037478
     38 H8           8.1800    -1.1970     0.1100 hc         1 KWY       0.037478
     39 H9           6.6910    -1.6420     0.9550 hc         1 KWY       0.037478
     40 H10          5.2440     2.7630     0.1540 ha         1 KWY       0.118500
     41 H11          2.8330     3.1450     0.1090 ha         1 KWY       0.123000
     42 H12          0.4810    -0.6600    -0.0330 hn         1 KWY       0.332500
     43 H13         -2.1270     2.2170    -0.0330 ha         1 KWY       0.169000
     44 H14          0.1800    -4.3340    -2.1590 ha         1 KWY       0.120000
     45 H15         -0.7900    -4.8030     2.0230 ha         1 KWY       0.120000
     46 H16         -1.9740    -2.6110     1.9970 ha         1 KWY       0.134000
     47 H17         -6.1550     4.5010    -0.0480 ha         1 KWY       0.111000
     48 H18         -6.1510    -0.4770    -0.1510 ha         1 KWY       0.122000
     49 H19          2.1770    -1.1440    -0.0270 ha         1 KWY       0.123000
     50 H20          4.5550    -1.5170     0.0180 ha         1 KWY       0.118500
     51 H21         -1.0050    -2.1440    -2.1920 ha         1 KWY       0.134000
     52 H22          0.2890    -5.6640    -0.0530 ha         1 KWY       0.119000
     53 H23         -4.0090     3.3010    -0.0420 ha         1 KWY       0.122000
     54 H24         -8.3070     3.2470    -0.1050 ha         1 KWY       0.110000
     55 H25         -8.2880     0.7560    -0.1570 ha         1 KWY       0.111000
@<TRIPOS>BOND
     1     1     2 1   
     2     1    31 1   
     3     1    32 1   
     4     1    33 1   
     5     2     3 1   
     6     2     4 1   
     7     2     5 1   
     8     3    34 1   
     9     3    35 1   
    10     3    36 1   
    11     4    37 1   
    12     4    38 1   
    13     4    39 1   
    14     5     6 ar  
    15     5    20 ar  
    16     6     7 ar  
    17     6    40 1   
    18     7     8 ar  
    19     7    41 1   
    20     8     9 1   
    21     8    19 ar  
    22     9    10 1   
    23     9    21 2   
    24    10    22 1   
    25    10    42 1   
    26    11    12 1   
    27    11    22 2   
    28    11    43 1   
    29    12    23 2   
    30    12    27 1   
    31    13    16 ar  
    32    13    24 1   
    33    13    25 ar  
    34    14    25 ar  
    35    14    26 ar  
    36    14    44 1   
    37    15    16 ar  
    38    15    26 ar  
    39    15    45 1   
    40    16    46 1   
    41    17    28 ar  
    42    17    29 ar  
    43    17    47 1   
    44    18    27 ar  
    45    18    30 ar  
    46    18    48 1   
    47    19    20 ar  
    48    19    49 1   
    49    20    50 1   
    50    22    24 1   
    51    23    24 1   
    52    25    51 1   
    53    26    52 1   
    54    27    28 ar  
    55    28    53 1   
    56    29    30 ar  
    57    29    54 1   
    58    30    55 1   
@<TRIPOS>SUBSTRUCTURE
     1 KWY         1 TEMP              0 ****  ****    0 ROOT
