@<TRIPOS>MOLECULE
KWY
   55    58     1     0     0
SMALL
bcc


@<TRIPOS>ATOM
      1 C1           7.1300     0.7670     1.4570 c3         1 KWY      -0.083767
      2 C2           6.6410     0.4000     0.0500 c3         1 KWY      -0.004700
      3 C3           7.3220     1.3120    -0.9800 c3         1 KWY      -0.083767
      4 C4           7.0470    -1.0440    -0.2430 c3         1 KWY      -0.083767
      5 C5           5.1330     0.6020    -0.0170 ca         1 KWY      -0.035300
      6 C6           4.5900     1.8680     0.2280 ca         1 KWY      -0.137500
      7 C7           3.2290     2.0950     0.1800 ca         1 KWY      -0.086500
      8 C8           2.3480     1.0510    -0.1010 ca         1 KWY      -0.159600
      9 C11          0.8920     1.3500    -0.1650 c          1 KWY       0.695700
     10 N13          0.0730     0.2920     0.0990 ns         1 KWY      -0.469100
     11 C15         -2.2210     1.3460    -0.0240 cc         1 KWY      -0.302300
     12 C16         -3.4730     0.6930    -0.0330 cc         1 KWY       0.387800
     13 C19         -1.5090    -2.1590     0.0550 ca         1 KWY       0.007800
     14 C21         -0.1100    -3.8720    -0.8710 ca         1 KWY      -0.122000
     15 C23         -1.4390    -4.3220     1.0810 ca         1 KWY      -0.122000
     16 C24         -1.9300    -3.0260     1.0550 ca         1 KWY      -0.123500
     17 C27         -6.2040     3.2590    -0.3370 ca         1 KWY      -0.135500
     18 C30         -5.9530     0.5320     0.0960 ca         1 KWY      -0.106000
     19 C9           2.8740    -0.2110    -0.3540 ca         1 KWY      -0.086500
     20 C10          4.2440    -0.4270    -0.3140 ca         1 KWY      -0.137500
     21 O12          0.4660     2.4570    -0.4330 o          1 KWY      -0.563100
     22 C14         -1.3050     0.3220     0.0250 cd         1 KWY       0.062300
     23 N17         -3.3300    -0.6180     0.0050 nd         1 KWY      -0.509800
     24 N18         -2.0110    -0.8370     0.0260 na         1 KWY       0.134300
     25 C20         -0.6090    -2.5780    -0.9170 ca         1 KWY      -0.123500
     26 C22         -0.5250    -4.7460     0.1240 ca         1 KWY      -0.123000
     27 C25         -4.8030     1.3060    -0.0750 ca         1 KWY      -0.118500
     28 C26         -4.9460     2.6770    -0.2920 ca         1 KWY      -0.106000
     29 C28         -7.3410     2.4810    -0.1680 ca         1 KWY      -0.123000
     30 C29         -7.2090     1.1150     0.0480 ca         1 KWY      -0.135500
     31 H1           6.6500     0.1480     2.2170 hc         1 KWY       0.037478
     32 H2           8.2090     0.6160     1.5330 hc         1 KWY       0.037478
     33 H3           6.9280     1.8110     1.7000 hc         1 KWY       0.037478
     34 H4           7.0980     2.3660    -0.8090 hc         1 KWY       0.037478
     35 H5           8.4050     1.1940    -0.9250 hc         1 KWY       0.037478
     36 H6           7.0070     1.0630    -1.9950 hc         1 KWY       0.037478
     37 H7           6.7490    -1.3610    -1.2440 hc         1 KWY       0.037478
     38 H8           8.1330    -1.1360    -0.1830 hc         1 KWY       0.037478
     39 H9           6.6200    -1.7450     0.4760 hc         1 KWY       0.037478
     40 H10          5.2410     2.7010     0.4610 ha         1 KWY       0.136500
     41 H11          2.8460     3.0880     0.3710 ha         1 KWY       0.141000
     42 H12          0.4910    -0.5580     0.4490 hn         1 KWY       0.332500
     43 H13         -2.0230     2.4020    -0.0200 ha         1 KWY       0.187000
     44 H14          0.5910    -4.2000    -1.6270 ha         1 KWY       0.138000
     45 H15         -1.7650    -5.0010     1.8580 ha         1 KWY       0.138000
     46 H16         -2.6320    -2.6880     1.8060 ha         1 KWY       0.152000
     47 H17         -6.2950     4.3240    -0.5060 ha         1 KWY       0.129000
     48 H18         -5.8620    -0.5330     0.2660 ha         1 KWY       0.140000
     49 H19          2.2360    -1.0480    -0.6140 ha         1 KWY       0.141000
     50 H20          4.6070    -1.4230    -0.5300 ha         1 KWY       0.136500
     51 H21         -0.3120    -1.9110    -1.7170 ha         1 KWY       0.152000
     52 H22         -0.1390    -5.7560     0.1540 ha         1 KWY       0.137000
     53 H23         -4.0710     3.3000    -0.4310 ha         1 KWY       0.140000
     54 H24         -8.3230     2.9350    -0.2050 ha         1 KWY       0.128000
     55 H25         -8.0890     0.4990     0.1850 ha         1 KWY       0.129000
@<TRIPOS>BOND
     1     1     2 1   
     2     1    31 1   
     3     1    32 1   
     4     1    33 1   
     5     2     3 1   
     6     2     4 1   
     7     2     5 1   
     8     3    34 1   
     9     3    35 1   
    10     3    36 1   
    11     4    37 1   
    12     4    38 1   
    13     4    39 1   
    14     5     6 ar  
    15     5    20 ar  
    16     6     7 ar  
    17     6    40 1   
    18     7     8 ar  
    19     7    41 1   
    20     8     9 1   
    21     8    19 ar  
    22     9    10 1   
    23     9    21 2   
    24    10    22 1   
    25    10    42 1   
    26    11    12 1   
    27    11    22 2   
    28    11    43 1   
    29    12    23 2   
    30    12    27 1   
    31    13    16 ar  
    32    13    24 1   
    33    13    25 ar  
    34    14    25 ar  
    35    14    26 ar  
    36    14    44 1   
    37    15    16 ar  
    38    15    26 ar  
    39    15    45 1   
    40    16    46 1   
    41    17    28 ar  
    42    17    29 ar  
    43    17    47 1   
    44    18    27 ar  
    45    18    30 ar  
    46    18    48 1   
    47    19    20 ar  
    48    19    49 1   
    49    20    50 1   
    50    22    24 1   
    51    23    24 1   
    52    25    51 1   
    53    26    52 1   
    54    27    28 ar  
    55    28    53 1   
    56    29    30 ar  
    57    29    54 1   
    58    30    55 1   
@<TRIPOS>SUBSTRUCTURE
     1 KWY         1 TEMP              0 ****  ****    0 ROOT
