@<TRIPOS>MOLECULE
KWZ
   48    50     1     0     0
SMALL
abcg2


@<TRIPOS>ATOM
      1 N1          -1.3210     1.3200     0.6580 nb         1 KWZ      -0.161000
      2 C2          -1.2240    -0.0100     0.6240 cp         1 KWZ       0.191500
      3 C3          -0.0280    -0.6260     0.9790 ca         1 KWZ      -0.197000
      4 C4           1.0450     0.1710     1.3560 ca         1 KWZ       0.134300
      5 N5           0.9300     1.5000     1.3810 nb         1 KWZ      -0.150000
      6 C6          -0.2470     1.9800     1.0320 ca         1 KWZ       0.242000
      7 C7          -2.4290    -0.7550     0.2090 cp         1 KWZ      -0.170500
      8 C8           2.3760    -0.4070     1.7110 c3         1 KWZ      -0.136700
      9 C9           3.3660    -0.2610     0.5520 c3         1 KWZ      -0.074400
     10 C10          4.7450    -0.7710     0.9470 c3         1 KWZ       0.171800
     11 N11          5.7050    -0.7500    -0.1400 n3         1 KWZ      -0.719600
     12 C12         -3.6300    -0.0680     0.0300 ca         1 KWZ      -0.012000
     13 C13         -4.7730    -0.7490    -0.3540 ca         1 KWZ      -0.207300
     14 C14         -4.7350    -2.1230    -0.5730 ca         1 KWZ      -0.040000
     15 C15         -3.5440    -2.8070    -0.4000 ca         1 KWZ      -0.125000
     16 C16         -2.3980    -2.1310    -0.0110 ca         1 KWZ      -0.057000
     17 C17         -6.0620    -0.0190    -0.5770 c3         1 KWZ       0.359300
     18 F18         -6.3540     0.0680    -1.8830 f          1 KWZ      -0.111333
     19 F19         -7.0930    -0.6450     0.0030 f          1 KWZ      -0.111333
     20 F20         -6.0390     1.2270    -0.1000 f          1 KWZ      -0.111333
     21 C21          6.8690    -1.5620     0.1810 c6         1 KWZ       0.167800
     22 C22          7.8370    -1.6430    -0.9890 c6         1 KWZ      -0.075400
     23 C23          8.2700    -0.2520    -1.4290 c6         1 KWZ      -0.075400
     24 C24          7.0400     0.6050    -1.7010 c6         1 KWZ      -0.075400
     25 C25          6.0970     0.6010    -0.5070 c6         1 KWZ       0.167800
     26 C26         -0.3760     3.4210     1.0680 cg         1 KWZ       0.232000
     27 N27         -0.4740     4.5660     1.0980 n1         1 KWZ      -0.411000
     28 H3           0.0860    -1.7000     0.9780 ha         1 KWZ       0.139000
     29 H8           2.7610     0.1170     2.5900 hc         1 KWZ       0.062700
     30 H8A          2.2640    -1.4590     1.9780 hc         1 KWZ       0.062700
     31 H9           3.0090    -0.8220    -0.3160 hc         1 KWZ       0.057700
     32 H9A          3.4090     0.7900     0.2590 hc         1 KWZ       0.057700
     33 H10          5.1060    -0.2020     1.8230 h1         1 KWZ       0.028200
     34 H10A         4.6430    -1.8080     1.2800 h1         1 KWZ       0.028200
     35 H12         -3.6530     0.9990     0.2000 ha         1 KWZ       0.159000
     36 H14         -5.6220    -2.6650    -0.8750 ha         1 KWZ       0.133000
     37 H15         -3.5060    -3.8740    -0.5690 ha         1 KWZ       0.126000
     38 H16         -1.4840    -2.6960     0.1090 ha         1 KWZ       0.118000
     39 H21          7.4020    -1.1660     1.0650 h1         1 KWZ       0.029700
     40 H21A         6.5260    -2.5650     0.4470 h1         1 KWZ       0.029700
     41 H22          8.6990    -2.2480    -0.7000 hc         1 KWZ       0.046450
     42 H22A         7.3490    -2.1580    -1.8230 hc         1 KWZ       0.046450
     43 H23          8.8680     0.2120    -0.6370 hc         1 KWZ       0.039700
     44 H23A         8.9080    -0.3040    -2.3140 hc         1 KWZ       0.039700
     45 H24          7.3250     1.6340    -1.9290 hc         1 KWZ       0.046450
     46 H24A         6.5100     0.2190    -2.5770 hc         1 KWZ       0.046450
     47 H25          5.2080     1.1830    -0.7570 h1         1 KWZ       0.029700
     48 H25A         6.5830     1.1160     0.3430 h1         1 KWZ       0.029700
@<TRIPOS>BOND
     1     1     2 ar  
     2     1     6 ar  
     3     2     3 ar  
     4     2     7 1   
     5     3     4 ar  
     6     3    28 1   
     7     4     5 ar  
     8     4     8 1   
     9     5     6 ar  
    10     6    26 1   
    11     7    12 ar  
    12     7    16 ar  
    13     8     9 1   
    14     8    29 1   
    15     8    30 1   
    16     9    10 1   
    17     9    31 1   
    18     9    32 1   
    19    10    11 1   
    20    10    33 1   
    21    10    34 1   
    22    11    21 1   
    23    11    25 1   
    24    12    13 ar  
    25    12    35 1   
    26    13    14 ar  
    27    13    17 1   
    28    14    15 ar  
    29    14    36 1   
    30    15    16 ar  
    31    15    37 1   
    32    16    38 1   
    33    17    18 1   
    34    17    19 1   
    35    17    20 1   
    36    21    22 1   
    37    21    39 1   
    38    21    40 1   
    39    22    23 1   
    40    22    41 1   
    41    22    42 1   
    42    23    24 1   
    43    23    43 1   
    44    23    44 1   
    45    24    25 1   
    46    24    45 1   
    47    24    46 1   
    48    25    47 1   
    49    25    48 1   
    50    26    27 3   
@<TRIPOS>SUBSTRUCTURE
     1 KWZ         1 TEMP              0 ****  ****    0 ROOT
