@<TRIPOS>MOLECULE
KWZ
   48    50     1     0     0
SMALL
No Charge or Current Charge


@<TRIPOS>ATOM
      1 N1          -1.4520     1.5450     0.8700 nb         1 KWZ      -0.161000
      2 C2          -1.2040     0.2350     0.6600 cp         1 KWZ       0.191500
      3 C3           0.0590    -0.3000     1.0150 ca         1 KWZ      -0.197000
      4 C4           1.0230     0.5620     1.5670 ca         1 KWZ       0.134300
      5 N5           0.7630     1.8700     1.7580 nb         1 KWZ      -0.150000
      6 C6          -0.4660     2.3000     1.4020 ca         1 KWZ       0.242000
      7 C7          -2.3080    -0.5930     0.0620 cp         1 KWZ      -0.170500
      8 C8           2.4030     0.0600     1.9620 c3         1 KWZ      -0.136700
      9 C9           3.3560    -0.0450     0.7500 c3         1 KWZ      -0.074400
     10 C10          4.7660    -0.5530     1.1330 c3         1 KWZ       0.171800
     11 N11          5.6640    -0.8310    -0.0160 n3         1 KWZ      -0.719600
     12 C12         -3.6660    -0.1760     0.1350 ca         1 KWZ      -0.012000
     13 C13         -4.7100    -0.9460    -0.4210 ca         1 KWZ      -0.207300
     14 C14         -4.3970    -2.1520    -1.0810 ca         1 KWZ      -0.040000
     15 C15         -3.0650    -2.5810    -1.1700 ca         1 KWZ      -0.125000
     16 C16         -2.0330    -1.8150    -0.6070 ca         1 KWZ      -0.057000
     17 C17         -6.1570    -0.4510    -0.3180 c3         1 KWZ       0.359300
     18 F18         -6.4030     0.5330    -1.2120 f          1 KWZ      -0.111333
     19 F19         -7.0650    -1.4280    -0.5480 f          1 KWZ      -0.111333
     20 F20         -6.4330     0.0510     0.9080 f          1 KWZ      -0.111333
     21 C21          6.9030    -1.5390     0.4170 c6         1 KWZ       0.167800
     22 C22          7.7860    -1.9480    -0.7870 c6         1 KWZ      -0.075400
     23 C23          8.1450    -0.7200    -1.6520 c6         1 KWZ      -0.075400
     24 C24          6.8580     0.0300    -2.0630 c6         1 KWZ      -0.075400
     25 C25          5.9950     0.3810    -0.8250 c6         1 KWZ       0.167800
     26 C26         -0.7540     3.6940     1.6080 cg         1 KWZ       0.232000
     27 N27         -0.9970     4.8250     1.7770 n1         1 KWZ      -0.411000
     28 H3           0.2870    -1.3520     0.8810 ha         1 KWZ       0.139000
     29 H8           2.8490     0.7220     2.7150 hc         1 KWZ       0.062700
     30 H8A          2.3140    -0.9250     2.4370 hc         1 KWZ       0.062700
     31 H9           2.9220    -0.7240     0.0060 hc         1 KWZ       0.057700
     32 H9A          3.4320     0.9430     0.2810 hc         1 KWZ       0.057700
     33 H10          5.2340     0.1790     1.8060 h1         1 KWZ       0.028200
     34 H10A         4.6340    -1.4780     1.7110 h1         1 KWZ       0.028200
     35 H12         -3.9150     0.7570     0.6390 ha         1 KWZ       0.159000
     36 H14         -5.1790    -2.7610    -1.5310 ha         1 KWZ       0.133000
     37 H15         -2.8300    -3.5100    -1.6840 ha         1 KWZ       0.126000
     38 H16         -1.0110    -2.1700    -0.7120 ha         1 KWZ       0.118000
     39 H21          7.4900    -0.8960     1.0900 h1         1 KWZ       0.029700
     40 H21A         6.6430    -2.4460     0.9830 h1         1 KWZ       0.029700
     41 H22          8.7020    -2.4360    -0.4270 hc         1 KWZ       0.046450
     42 H22A         7.2530    -2.6910    -1.3960 hc         1 KWZ       0.046450
     43 H23          8.8030    -0.0470    -1.0870 hc         1 KWZ       0.039700
     44 H23A         8.7020    -1.0350    -2.5450 hc         1 KWZ       0.039700
     45 H24          7.1160     0.9480    -2.6080 hc         1 KWZ       0.046450
     46 H24A         6.2700    -0.5910    -2.7530 hc         1 KWZ       0.046450
     47 H25          5.0810     0.8740    -1.1840 h1         1 KWZ       0.029700
     48 H25A         6.5360     1.1130    -0.2060 h1         1 KWZ       0.029700
@<TRIPOS>BOND
     1     1     2 ar  
     2     1     6 ar  
     3     2     3 ar  
     4     2     7 1   
     5     3     4 ar  
     6     3    28 1   
     7     4     5 ar  
     8     4     8 1   
     9     5     6 ar  
    10     6    26 1   
    11     7    12 ar  
    12     7    16 ar  
    13     8     9 1   
    14     8    29 1   
    15     8    30 1   
    16     9    10 1   
    17     9    31 1   
    18     9    32 1   
    19    10    11 1   
    20    10    33 1   
    21    10    34 1   
    22    11    21 1   
    23    11    25 1   
    24    12    13 ar  
    25    12    35 1   
    26    13    14 ar  
    27    13    17 1   
    28    14    15 ar  
    29    14    36 1   
    30    15    16 ar  
    31    15    37 1   
    32    16    38 1   
    33    17    18 1   
    34    17    19 1   
    35    17    20 1   
    36    21    22 1   
    37    21    39 1   
    38    21    40 1   
    39    22    23 1   
    40    22    41 1   
    41    22    42 1   
    42    23    24 1   
    43    23    43 1   
    44    23    44 1   
    45    24    25 1   
    46    24    45 1   
    47    24    46 1   
    48    25    47 1   
    49    25    48 1   
    50    26    27 3   
@<TRIPOS>SUBSTRUCTURE
     1 KWZ         1 TEMP              0 ****  ****    0 ROOT
