@<TRIPOS>MOLECULE
KX1
   54    56     1     0     0
SMALL
bcc


@<TRIPOS>ATOM
      1 N1          -2.3220     1.9470     0.0790 nb         1 KX1      -0.682000
      2 C2          -2.4810     0.6420     0.2990 ca         1 KX1       0.463600
      3 C3          -1.4070    -0.1270     0.7370 ca         1 KX1      -0.349600
      4 C4          -0.1860     0.4940     0.9610 ca         1 KX1       0.458600
      5 N5          -0.0460     1.8040     0.7420 nb         1 KX1      -0.681000
      6 C6          -1.1180     2.4350     0.3120 ca         1 KX1       0.758000
      7 C7           1.0180    -0.2490     1.4430 c3         1 KX1      -0.133700
      8 C8           2.1450    -0.2510     0.4090 c3         1 KX1      -0.073400
      9 C9           3.4010    -0.9060     0.9700 c3         1 KX1       0.170800
     10 C10         -3.8360     0.0590     0.0180 c3         1 KX1      -0.121000
     11 C11         -3.8370    -0.4670    -1.4250 c3         1 KX1      -0.065400
     12 C12         -5.1520    -1.0790    -1.9040 c3         1 KX1      -0.068900
     13 C13         -4.2600    -0.9650     1.0760 c3         1 KX1      -0.065400
     14 C14         -5.4600    -2.4410    -1.2830 c3         1 KX1      -0.070900
     15 C15         -5.7540    -1.2830     1.0230 c3         1 KX1      -0.068900
     16 C16         -6.1640    -2.4120     0.0760 c3         1 KX1      -0.070900
     17 C17         -0.9590     3.8530     0.0710 cg         1 KX1       0.146800
     18 N18          4.5020    -0.9460     0.0260 n3         1 KX1      -0.717600
     19 N19         -0.8350     4.9810    -0.1140 n1         1 KX1      -0.330800
     20 C20          5.5210    -1.8900     0.4550 c6         1 KX1       0.166300
     21 C21          6.6350    -2.0210    -0.5730 c6         1 KX1      -0.074900
     22 C22          7.2560    -0.6640    -0.8780 c6         1 KX1      -0.075400
     23 C23          6.1670     0.3290    -1.2600 c6         1 KX1      -0.074900
     24 C24          5.0800     0.3700    -0.1970 c6         1 KX1       0.166300
     25 H3          -1.5180    -1.1880     0.9110 ha         1 KX1       0.158000
     26 H7           1.3710     0.2310     2.3610 hc         1 KX1       0.059200
     27 H7A          0.7380    -1.2710     1.7040 hc         1 KX1       0.059200
     28 H8           1.8260    -0.7870    -0.4890 hc         1 KX1       0.059700
     29 H8A          2.3450     0.7800     0.1110 hc         1 KX1       0.059700
     30 H9           3.6880    -0.3980     1.9080 h1         1 KX1       0.027700
     31 H9A          3.1560    -1.9370     1.2440 h1         1 KX1       0.027700
     32 H10         -4.5420     0.8950     0.0640 hc         1 KX1       0.078700
     33 H11         -3.5670     0.3620    -2.0860 hc         1 KX1       0.042700
     34 H11A        -3.0450    -1.2160    -1.5350 hc         1 KX1       0.042700
     35 H12         -5.9800    -0.3800    -1.7440 hc         1 KX1       0.041450
     36 H12A        -5.0720    -1.2000    -2.9870 hc         1 KX1       0.041450
     37 H13         -3.6660    -1.8820     0.9950 hc         1 KX1       0.042700
     38 H13A        -4.0280    -0.5480     2.0610 hc         1 KX1       0.042700
     39 H14         -6.0810    -3.0190    -1.9710 hc         1 KX1       0.036700
     40 H14A        -4.5220    -2.9990    -1.2050 hc         1 KX1       0.036700
     41 H15         -6.1000    -1.5420     2.0260 hc         1 KX1       0.041450
     42 H15A        -6.2910    -0.3670     0.7580 hc         1 KX1       0.041450
     43 H16         -7.2440    -2.3410    -0.0800 hc         1 KX1       0.036700
     44 H16A        -5.9970    -3.3730     0.5690 hc         1 KX1       0.036700
     45 H20          5.9600    -1.5910     1.4260 h1         1 KX1       0.029700
     46 H20A         5.0500    -2.8630     0.6140 h1         1 KX1       0.029700
     47 H21          7.3880    -2.7190    -0.2010 hc         1 KX1       0.046450
     48 H21A         6.2260    -2.4530    -1.4920 hc         1 KX1       0.046450
     49 H22          7.7800    -0.2980     0.0120 hc         1 KX1       0.038700
     50 H22A         8.0030    -0.7490    -1.6700 hc         1 KX1       0.038700
     51 H23          6.5820     1.3310    -1.3900 hc         1 KX1       0.046450
     52 H23A         5.7220     0.0410    -2.2180 hc         1 KX1       0.046450
     53 H24          4.2960     1.0620    -0.5080 h1         1 KX1       0.029700
     54 H24A         5.5040     0.7770     0.7410 h1         1 KX1       0.029700
@<TRIPOS>BOND
     1     1     2 ar  
     2     1     6 ar  
     3     2     3 ar  
     4     2    10 1   
     5     3     4 ar  
     6     3    25 1   
     7     4     5 ar  
     8     4     7 1   
     9     5     6 ar  
    10     6    17 1   
    11     7     8 1   
    12     7    26 1   
    13     7    27 1   
    14     8     9 1   
    15     8    28 1   
    16     8    29 1   
    17     9    18 1   
    18     9    30 1   
    19     9    31 1   
    20    10    11 1   
    21    10    13 1   
    22    10    32 1   
    23    11    12 1   
    24    11    33 1   
    25    11    34 1   
    26    12    14 1   
    27    12    35 1   
    28    12    36 1   
    29    13    15 1   
    30    13    37 1   
    31    13    38 1   
    32    14    16 1   
    33    14    39 1   
    34    14    40 1   
    35    15    16 1   
    36    15    41 1   
    37    15    42 1   
    38    16    43 1   
    39    16    44 1   
    40    17    19 3   
    41    18    20 1   
    42    18    24 1   
    43    20    21 1   
    44    20    45 1   
    45    20    46 1   
    46    21    22 1   
    47    21    47 1   
    48    21    48 1   
    49    22    23 1   
    50    22    49 1   
    51    22    50 1   
    52    23    24 1   
    53    23    51 1   
    54    23    52 1   
    55    24    53 1   
    56    24    54 1   
@<TRIPOS>SUBSTRUCTURE
     1 KX1         1 TEMP              0 ****  ****    0 ROOT
