@<TRIPOS>MOLECULE
KX1
   54    56     1     0     0
SMALL
No Charge or Current Charge


@<TRIPOS>ATOM
      1 N1          -2.5770     2.2270     0.7180 nb         1 KX1      -0.156000
      2 C2          -2.4600     0.8890     0.5850 ca         1 KX1       0.135300
      3 C3          -1.2870     0.2230     0.9900 ca         1 KX1      -0.201000
      4 C4          -0.2470     0.9940     1.5370 ca         1 KX1       0.130300
      5 N5          -0.3630     2.3310     1.6680 nb         1 KX1      -0.155000
      6 C6          -1.5240     2.8840     1.2540 ca         1 KX1       0.232000
      7 C7           1.0580     0.3570     1.9870 c3         1 KX1      -0.133700
      8 C8           2.0080     0.0730     0.8010 c3         1 KX1      -0.073400
      9 C9           3.3430    -0.5740     1.2390 c3         1 KX1       0.170800
     10 C10         -3.6460     0.1410    -0.0250 c3         1 KX1      -0.121000
     11 C11         -3.2670    -0.4110    -1.4240 c3         1 KX1      -0.065400
     12 C12         -4.3730    -1.1900    -2.1750 c3         1 KX1      -0.068900
     13 C13         -4.1930    -0.9220     0.9680 c3         1 KX1      -0.065400
     14 C14         -4.6650    -2.5840    -1.5750 c3         1 KX1      -0.070900
     15 C15         -5.6040    -1.4480     0.6150 c3         1 KX1      -0.068900
     16 C16         -5.6630    -2.6190    -0.3940 c3         1 KX1      -0.070900
     17 C17         -1.6510     4.3100     1.3940 cg         1 KX1       0.236000
     18 N18          4.2170    -1.0210     0.1260 n3         1 KX1      -0.717600
     19 N19         -1.7480     5.4700     1.5000 n1         1 KX1      -0.420000
     20 C20          5.3570    -1.8430     0.6220 c6         1 KX1       0.166300
     21 C21          6.2010    -2.4220    -0.5400 c6         1 KX1      -0.074900
     22 C22          6.7130    -1.2960    -1.4660 c6         1 KX1      -0.075400
     23 C23          5.5290    -0.4260    -1.9430 c6         1 KX1      -0.074900
     24 C24          4.6980     0.0950    -0.7430 c6         1 KX1       0.166300
     25 H3          -1.1850    -0.8530     0.8810 ha         1 KX1       0.140000
     26 H7           1.5700     1.0040     2.7100 hc         1 KX1       0.059200
     27 H7A          0.8470    -0.5820     2.5120 hc         1 KX1       0.059200
     28 H8           1.5070    -0.5930     0.0880 hc         1 KX1       0.059700
     29 H8A          2.2060     1.0160     0.2790 hc         1 KX1       0.059700
     30 H9           3.8850     0.1360     1.8790 h1         1 KX1       0.027700
     31 H9A          3.0950    -1.4420     1.8660 h1         1 KX1       0.027700
     32 H10         -4.4540     0.8670    -0.1860 hc         1 KX1       0.078700
     33 H11         -2.9640     0.4360    -2.0520 hc         1 KX1       0.042700
     34 H11A        -2.3800    -1.0520    -1.3380 hc         1 KX1       0.042700
     35 H12         -5.2930    -0.5950    -2.2290 hc         1 KX1       0.041450
     36 H12A        -4.0360    -1.3310    -3.2090 hc         1 KX1       0.041450
     37 H13         -3.4920    -1.7610     1.0650 hc         1 KX1       0.042700
     38 H13A        -4.2540    -0.4570     1.9600 hc         1 KX1       0.042700
     39 H14         -5.0590    -3.2310    -2.3680 hc         1 KX1       0.036700
     40 H14A        -3.7190    -3.0430    -1.2600 hc         1 KX1       0.036700
     41 H15         -6.0940    -1.7790     1.5390 hc         1 KX1       0.041450
     42 H15A        -6.2160    -0.6180     0.2390 hc         1 KX1       0.041450
     43 H16         -6.6820    -2.6670    -0.7970 hc         1 KX1       0.036700
     44 H16A        -5.5100    -3.5600     0.1490 hc         1 KX1       0.036700
     45 H20          6.0080    -1.2360     1.2690 h1         1 KX1       0.029700
     46 H20A         4.9860    -2.6790     1.2330 h1         1 KX1       0.029700
     47 H21          7.0490    -2.9910    -0.1360 hc         1 KX1       0.046450
     48 H21A         5.5920    -3.1310    -1.1170 hc         1 KX1       0.046450
     49 H22          7.4400    -0.6730    -0.9270 hc         1 KX1       0.038700
     50 H22A         7.2410    -1.7250    -2.3290 hc         1 KX1       0.038700
     51 H23          5.9000     0.4220    -2.5340 hc         1 KX1       0.046450
     52 H23A         4.8810    -1.0130    -2.6080 hc         1 KX1       0.046450
     53 H24          3.8530     0.6700    -1.1470 h1         1 KX1       0.029700
     54 H24A         5.3140     0.7930    -0.1570 h1         1 KX1       0.029700
@<TRIPOS>BOND
     1     1     2 ar  
     2     1     6 ar  
     3     2     3 ar  
     4     2    10 1   
     5     3     4 ar  
     6     3    25 1   
     7     4     5 ar  
     8     4     7 1   
     9     5     6 ar  
    10     6    17 1   
    11     7     8 1   
    12     7    26 1   
    13     7    27 1   
    14     8     9 1   
    15     8    28 1   
    16     8    29 1   
    17     9    18 1   
    18     9    30 1   
    19     9    31 1   
    20    10    11 1   
    21    10    13 1   
    22    10    32 1   
    23    11    12 1   
    24    11    33 1   
    25    11    34 1   
    26    12    14 1   
    27    12    35 1   
    28    12    36 1   
    29    13    15 1   
    30    13    37 1   
    31    13    38 1   
    32    14    16 1   
    33    14    39 1   
    34    14    40 1   
    35    15    16 1   
    36    15    41 1   
    37    15    42 1   
    38    16    43 1   
    39    16    44 1   
    40    17    19 3   
    41    18    20 1   
    42    18    24 1   
    43    20    21 1   
    44    20    45 1   
    45    20    46 1   
    46    21    22 1   
    47    21    47 1   
    48    21    48 1   
    49    22    23 1   
    50    22    49 1   
    51    22    50 1   
    52    23    24 1   
    53    23    51 1   
    54    23    52 1   
    55    24    53 1   
    56    24    54 1   
@<TRIPOS>SUBSTRUCTURE
     1 KX1         1 TEMP              0 ****  ****    0 ROOT
