@<TRIPOS>MOLECULE
KX2
   96    98     1     0     0
SMALL
bcc


@<TRIPOS>ATOM
      1 C1          -1.0040     3.5810     0.4170 c          1 KX2       0.693300
      2 N1          -0.0400     3.5730    -0.5700 ns         1 KX2      -0.511100
      3 O1          -0.7420     3.1960     1.5390 o          1 KX2      -0.548100
      4 C2          -2.3530     4.0170    -0.0220 ce         1 KX2      -0.205400
      5 N2          -2.2900     1.4760    -2.3130 nt         1 KX2      -0.670000
      6 O2          -4.6370     0.9920     1.8610 os         1 KX2      -0.390600
      7 C3          -3.3690     3.3380     0.5320 cf         1 KX2      -0.027000
      8 O3          -3.7200     0.7280    -0.8250 os         1 KX2      -0.418900
      9 C4          -4.7630     3.4350     0.1340 cf         1 KX2      -0.116000
     10 O4          -4.4060     0.9680    -2.9670 o          1 KX2      -0.613000
     11 C5          -5.6760     2.4610     0.2440 c2         1 KX2      -0.156200
     12 O5          -1.6510    -3.3180    -1.0000 oh         1 KX2      -0.595800
     13 C6          -5.4860     1.0540     0.7450 c3         1 KX2       0.176300
     14 O6          -0.6810    -3.6150     2.4080 os         1 KX2      -0.417600
     15 C7          -4.9470     0.1720    -0.4040 c3         1 KX2       0.190300
     16 C8          -4.7600    -1.2700     0.0070 c2         1 KX2      -0.159400
     17 O8           4.5580     2.6830    -1.0730 o          1 KX2      -0.510100
     18 C9          -3.5610    -1.7440     0.3460 c2         1 KX2      -0.121200
     19 O9          -0.2910     0.9180    -0.0670 o          1 KX2      -0.539100
     20 C10         -3.2640    -3.1520     0.7910 c3         1 KX2      -0.062500
     21 C11         -1.8500    -3.6010     0.3680 c3         1 KX2       0.158100
     22 C12         -0.6840    -2.9760     1.1470 c3         1 KX2       0.146100
     23 C13          0.6760    -3.1530     0.4440 c3         1 KX2      -0.087400
     24 C14          1.1660    -1.9090    -0.3040 c3         1 KX2      -0.060700
     25 C15          1.6770    -0.8710     0.7120 c3         1 KX2      -0.005200
     26 C16          1.9890     0.4900     0.1520 cc         1 KX2      -0.334400
     27 C17          3.2510     0.9010    -0.2060 cd         1 KX2       0.164800
     28 C18          3.4540     2.2910    -0.7570 c          1 KX2       0.575500
     29 C19          2.3040     3.1820    -0.8500 cc         1 KX2      -0.298200
     30 C20          1.0850     2.7790    -0.4770 cd         1 KX2       0.055400
     31 C21          0.8580     1.3390    -0.0970 c          1 KX2       0.590500
     32 C22         -2.4790     4.9940    -1.1530 c3         1 KX2      -0.047900
     33 C23         -5.1700     0.3050     2.9690 c3         1 KX2       0.123700
     34 C24         -3.5430     1.0490    -2.1130 c          1 KX2       0.759100
     35 C25         -6.0330    -2.0640     0.0040 c3         1 KX2      -0.055900
     36 C26         -3.5750    -3.3200     2.2800 c3         1 KX2      -0.070100
     37 C27         -0.1180    -2.8470     3.4370 c3         1 KX2       0.124700
     38 C28          2.2300    -2.2700    -1.3320 c3         1 KX2      -0.084100
     39 N29          4.3200     0.1020    -0.0780 nu         1 KX2      -0.751000
     40 C30          5.6970     0.2540    -0.5170 c3         1 KX2       0.233800
     41 C31          6.4090    -1.0740    -0.2920 c3         1 KX2       0.147800
     42 N32          7.7990    -1.0030    -0.6600 n3         1 KX2      -0.713600
     43 C33          8.0440    -0.8580    -2.0880 c5         1 KX2       0.156300
     44 C34          9.5270    -1.2090    -2.2570 c5         1 KX2      -0.079400
     45 C35          9.8890    -2.0020    -0.9840 c5         1 KX2      -0.079400
     46 C36          8.5520    -2.1840    -0.2730 c5         1 KX2       0.156300
     47 HN1         -0.1290     4.1780    -1.3730 hn         1 KX2       0.331500
     48 HN2         -1.9890     1.7160    -3.2400 hn         1 KX2       0.337000
     49 HN2A        -1.6100     1.4400    -1.5670 hn         1 KX2       0.337000
     50 H3          -3.1320     2.5970     1.2820 ha         1 KX2       0.174000
     51 H4          -5.0900     4.3580    -0.3330 ha         1 KX2       0.122000
     52 H5          -6.6660     2.6650    -0.1500 ha         1 KX2       0.125000
     53 HO5         -2.4380    -3.5890    -1.4820 ho         1 KX2       0.408000
     54 H6          -6.4820     0.6650     0.9970 h1         1 KX2       0.047700
     55 H7          -5.6810     0.2150    -1.2150 h1         1 KX2       0.079700
     56 H9          -2.7200    -1.0590     0.3300 ha         1 KX2       0.159000
     57 H10         -3.9410    -3.8340     0.2600 hc         1 KX2       0.040700
     58 H11         -1.7870    -4.6870     0.5460 h1         1 KX2       0.040700
     59 H12         -0.8740    -1.8980     1.2780 h1         1 KX2       0.060700
     60 H13          1.4280    -3.4130     1.1980 hc         1 KX2       0.046700
     61 H13A         0.6380    -4.0070    -0.2370 hc         1 KX2       0.046700
     62 H14          0.3140    -1.4720    -0.8300 hc         1 KX2       0.078700
     63 H15          0.9240    -0.7460     1.4950 hc         1 KX2       0.039700
     64 H15A         2.5450    -1.2900     1.2360 hc         1 KX2       0.039700
     65 H19          2.4960     4.1920    -1.1900 ha         1 KX2       0.159000
     66 H22         -2.3170     4.5080    -2.1190 hc         1 KX2       0.041700
     67 H22A        -3.4690     5.4430    -1.1870 hc         1 KX2       0.041700
     68 H22B        -1.7620     5.8120    -1.0670 hc         1 KX2       0.041700
     69 H23         -5.4000    -0.7400     2.7430 h1         1 KX2       0.030700
     70 H23A        -4.4170     0.3200     3.7560 h1         1 KX2       0.030700
     71 H23B        -6.0790     0.7860     3.3480 h1         1 KX2       0.030700
     72 H25         -6.5060    -2.0360    -0.9810 hc         1 KX2       0.039033
     73 H25A        -5.8840    -3.1080     0.2730 hc         1 KX2       0.039033
     74 H25B        -6.7620    -1.6520     0.7060 hc         1 KX2       0.039033
     75 H26         -4.6440    -3.1760     2.4420 hc         1 KX2       0.037700
     76 H26A        -3.3140    -4.3150     2.6420 hc         1 KX2       0.037700
     77 H26B        -3.0550    -2.5860     2.8960 hc         1 KX2       0.037700
     78 H27          0.9230    -2.5650     3.2370 h1         1 KX2       0.028700
     79 H27A        -0.6830    -1.9240     3.6170 h1         1 KX2       0.028700
     80 H27B        -0.1350    -3.4430     4.3490 h1         1 KX2       0.028700
     81 H28          1.8250    -2.9500    -2.0820 hc         1 KX2       0.028700
     82 H28A         2.6030    -1.3890    -1.8570 hc         1 KX2       0.028700
     83 H28B         3.0840    -2.7710    -0.8670 hc         1 KX2       0.028700
     84 HN29         4.1120    -0.8090     0.3000 hn         1 KX2       0.433800
     85 H30          5.7330     0.5240    -1.5730 h1         1 KX2       0.068200
     86 H30A         6.2120     1.0340     0.0450 h1         1 KX2       0.068200
     87 H31          6.3460    -1.3320     0.7700 h1         1 KX2       0.035200
     88 H31A         5.8790    -1.8720    -0.8460 h1         1 KX2       0.035200
     89 H33          7.4160    -1.5540    -2.6700 h1         1 KX2       0.037450
     90 H33A         7.8130     0.1500    -2.4350 h1         1 KX2       0.037450
     91 H34          9.6860    -1.7900    -3.1640 hc         1 KX2       0.049200
     92 H34A        10.1380    -0.3100    -2.3420 hc         1 KX2       0.049200
     93 H35         10.3640    -2.9570    -1.2020 hc         1 KX2       0.049200
     94 H35A        10.5770    -1.4310    -0.3580 hc         1 KX2       0.049200
     95 H36          8.6430    -2.2490     0.8140 h1         1 KX2       0.037450
     96 H36A         8.0600    -3.1090    -0.6180 h1         1 KX2       0.037450
@<TRIPOS>BOND
     1     1     2 1   
     2     1     3 2   
     3     1     4 1   
     4     2    30 1   
     5     2    47 1   
     6     4     7 2   
     7     4    32 1   
     8     5    34 1   
     9     5    48 1   
    10     5    49 1   
    11     6    13 1   
    12     6    33 1   
    13     7     9 1   
    14     7    50 1   
    15     8    15 1   
    16     8    34 1   
    17     9    11 2   
    18     9    51 1   
    19    10    34 2   
    20    11    13 1   
    21    11    52 1   
    22    12    21 1   
    23    12    53 1   
    24    13    15 1   
    25    13    54 1   
    26    14    22 1   
    27    14    37 1   
    28    15    16 1   
    29    15    55 1   
    30    16    18 2   
    31    16    35 1   
    32    17    28 2   
    33    18    20 1   
    34    18    56 1   
    35    19    31 2   
    36    20    21 1   
    37    20    36 1   
    38    20    57 1   
    39    21    22 1   
    40    21    58 1   
    41    22    23 1   
    42    22    59 1   
    43    23    24 1   
    44    23    60 1   
    45    23    61 1   
    46    24    25 1   
    47    24    38 1   
    48    24    62 1   
    49    25    26 1   
    50    25    63 1   
    51    25    64 1   
    52    26    27 2   
    53    26    31 1   
    54    27    28 1   
    55    27    39 1   
    56    28    29 1   
    57    29    30 2   
    58    29    65 1   
    59    30    31 1   
    60    32    66 1   
    61    32    67 1   
    62    32    68 1   
    63    33    69 1   
    64    33    70 1   
    65    33    71 1   
    66    35    72 1   
    67    35    73 1   
    68    35    74 1   
    69    36    75 1   
    70    36    76 1   
    71    36    77 1   
    72    37    78 1   
    73    37    79 1   
    74    37    80 1   
    75    38    81 1   
    76    38    82 1   
    77    38    83 1   
    78    39    40 1   
    79    39    84 1   
    80    40    41 1   
    81    40    85 1   
    82    40    86 1   
    83    41    42 1   
    84    41    87 1   
    85    41    88 1   
    86    42    43 1   
    87    42    46 1   
    88    43    44 1   
    89    43    89 1   
    90    43    90 1   
    91    44    45 1   
    92    44    91 1   
    93    44    92 1   
    94    45    46 1   
    95    45    93 1   
    96    45    94 1   
    97    46    95 1   
    98    46    96 1   
@<TRIPOS>SUBSTRUCTURE
     1 KX2         1 TEMP              0 ****  ****    0 ROOT
