@<TRIPOS>MOLECULE
KX2
   96    98     1     0     0
SMALL
No Charge or Current Charge


@<TRIPOS>ATOM
      1 C1          -1.1130     3.5100     0.5700 c          1 KX2       0.626300
      2 N1          -0.0250     3.4820    -0.2790 ns         1 KX2      -0.444100
      3 O1          -1.0230     3.1380     1.7320 o          1 KX2      -0.548100
      4 C2          -2.4190     3.9460    -0.0380 ce         1 KX2      -0.205400
      5 N2          -1.9060     0.9240    -1.9560 nt         1 KX2      -0.603000
      6 O2          -5.1450     1.3180     1.9080 os         1 KX2      -0.437000
      7 C3          -3.5780     3.5990     0.6020 cf         1 KX2      -0.077000
      8 O3          -3.7480     0.9140    -0.7430 os         1 KX2      -0.442100
      9 C4          -4.9400     3.7720     0.1140 cf         1 KX2      -0.166000
     10 O4          -3.7490     0.0090    -2.8620 o          1 KX2      -0.564000
     11 C5          -5.8940     2.8030     0.1420 c2         1 KX2      -0.206200
     12 O5          -1.9820    -3.1230    -0.9660 oh         1 KX2      -0.718000
     13 C6          -5.7840     1.3480     0.6100 c3         1 KX2       0.199500
     14 O6          -0.8390    -3.5440     2.5400 os         1 KX2      -0.464000
     15 C7          -5.0660     0.4090    -0.4330 c3         1 KX2       0.213500
     16 C8          -4.9220    -1.0650    -0.0280 c2         1 KX2      -0.159400
     17 O8           4.5430     2.7430    -1.0040 o          1 KX2      -0.510100
     18 C9          -3.8080    -1.5630     0.5620 c2         1 KX2      -0.171200
     19 O9          -0.2090     0.7220     0.5400 o          1 KX2      -0.539100
     20 C10         -3.4940    -3.0170     0.9120 c3         1 KX2      -0.062500
     21 C11         -2.0750    -3.4740     0.4260 c3         1 KX2       0.181300
     22 C12         -0.8280    -2.9320     1.2270 c3         1 KX2       0.169300
     23 C13          0.5480    -3.2740     0.5500 c3         1 KX2      -0.087400
     24 C14          1.2520    -2.0680    -0.1360 c3         1 KX2      -0.060700
     25 C15          1.8560    -1.0740     0.9010 c3         1 KX2      -0.005200
     26 C16          2.1180     0.3280     0.3470 cc         1 KX2      -0.334400
     27 C17          3.3450     0.8320    -0.0720 cd         1 KX2       0.164800
     28 C18          3.4880     2.2580    -0.6110 c          1 KX2       0.575500
     29 C19          2.2710     3.0790    -0.6410 cc         1 KX2      -0.348200
     30 C20          1.0590     2.6120    -0.1940 cd         1 KX2       0.055400
     31 C21          0.8970     1.1830     0.2760 c          1 KX2       0.590500
     32 C22         -2.3960     4.6210    -1.4110 c3         1 KX2      -0.047900
     33 C23         -5.6360     0.3330     2.8370 c3         1 KX2       0.146900
     34 C24         -3.1930     0.5690    -1.9340 c          1 KX2       0.643100
     35 C25         -6.1530    -1.8750    -0.4170 c3         1 KX2      -0.055900
     36 C26         -3.8000    -3.2950     2.4000 c3         1 KX2      -0.070100
     37 C27         -0.0670    -2.8770     3.5590 c3         1 KX2       0.147900
     38 C28          2.3230    -2.5410    -1.1480 c3         1 KX2      -0.084100
     39 N29          4.4380    -0.0290     0.0070 nu         1 KX2      -0.806200
     40 C30          5.8020     0.1700    -0.5340 c3         1 KX2       0.233800
     41 C31          6.6570    -1.1220    -0.4230 c3         1 KX2       0.147800
     42 N32          8.0560    -0.9950    -0.9040 n3         1 KX2      -0.713600
     43 C33          8.2230    -0.7020    -2.3450 c5         1 KX2       0.156300
     44 C34          9.7650    -0.7720    -2.5070 c5         1 KX2      -0.079400
     45 C35         10.2210    -1.7500    -1.3780 c5         1 KX2      -0.079400
     46 C36          8.8910    -2.1980    -0.7190 c5         1 KX2       0.156300
     47 HN1         -0.0990     4.0930    -1.0820 hn         1 KX2       0.331500
     48 HN2         -1.3470     0.7140    -2.7670 hn         1 KX2       0.337000
     49 HN2A        -1.4900     1.2870    -1.1120 hn         1 KX2       0.337000
     50 H3          -3.4890     3.0410     1.5350 ha         1 KX2       0.224000
     51 H4          -5.1870     4.7410    -0.3230 ha         1 KX2       0.172000
     52 H5          -6.8800     3.0440    -0.2590 ha         1 KX2       0.175000
     53 HO5         -2.7280    -2.5050    -1.1360 ho         1 KX2       0.507000
     54 H6          -6.8130     0.9760     0.7080 h1         1 KX2       0.047700
     55 H7          -5.6910     0.4620    -1.3350 h1         1 KX2       0.079700
     56 H9          -2.9950    -0.8780     0.8180 ha         1 KX2       0.209000
     57 H10         -4.1800    -3.6670     0.3590 hc         1 KX2       0.040700
     58 H11         -2.0430    -4.5690     0.5130 h1         1 KX2       0.040700
     59 H12         -0.9300    -1.8440     1.3200 h1         1 KX2       0.060700
     60 H13          1.2420    -3.7200     1.2710 hc         1 KX2       0.046700
     61 H13A         0.3820    -4.0620    -0.1960 hc         1 KX2       0.046700
     62 H14          0.4850    -1.5390    -0.7150 hc         1 KX2       0.078700
     63 H15          1.1800    -0.9880     1.7590 hc         1 KX2       0.039700
     64 H15A         2.7610    -1.5140     1.3350 hc         1 KX2       0.039700
     65 H19          2.4020     4.0880    -1.0140 ha         1 KX2       0.209000
     66 H22         -1.9110     3.9890    -2.1640 hc         1 KX2       0.041700
     67 H22A        -3.4000     4.8390    -1.7920 hc         1 KX2       0.041700
     68 H22B        -1.8560     5.5750    -1.3720 hc         1 KX2       0.041700
     69 H23         -5.5360    -0.6840     2.4450 h1         1 KX2       0.030700
     70 H23A        -5.0760     0.3880     3.7790 h1         1 KX2       0.030700
     71 H23B        -6.6960     0.5100     3.0630 h1         1 KX2       0.030700
     72 H25         -6.2470    -1.9450    -1.5080 hc         1 KX2       0.039033
     73 H25A        -6.1470    -2.8940    -0.0200 hc         1 KX2       0.039033
     74 H25B        -7.0670    -1.4020    -0.0370 hc         1 KX2       0.039033
     75 H26         -4.8680    -3.1450     2.6030 hc         1 KX2       0.037700
     76 H26A        -3.5480    -4.3280     2.6650 hc         1 KX2       0.037700
     77 H26B        -3.2390    -2.6160     3.0530 hc         1 KX2       0.037700
     78 H27          1.0030    -2.8750     3.3180 h1         1 KX2       0.028700
     79 H27A        -0.3980    -1.8380     3.6790 h1         1 KX2       0.028700
     80 H27B        -0.1930    -3.3870     4.5220 h1         1 KX2       0.028700
     81 H28          1.8820    -3.2130    -1.8930 hc         1 KX2       0.028700
     82 H28A         2.7560    -1.6900    -1.6850 hc         1 KX2       0.028700
     83 H28B         3.1330    -3.0790    -0.6400 hc         1 KX2       0.028700
     84 HN29         4.2190    -0.9570     0.3660 hn         1 KX2       0.489000
     85 H30          5.7440     0.4650    -1.5900 h1         1 KX2       0.068200
     86 H30A         6.3110     0.9740     0.0140 h1         1 KX2       0.068200
     87 H31          6.6700    -1.4240     0.6330 h1         1 KX2       0.035200
     88 H31A         6.1480    -1.9220    -0.9790 h1         1 KX2       0.035200
     89 H33          7.7260    -1.4620    -2.9650 h1         1 KX2       0.037450
     90 H33A         7.8270     0.2830    -2.6290 h1         1 KX2       0.037450
     91 H34         10.0490    -1.1230    -3.5060 hc         1 KX2       0.049200
     92 H34A        10.2200     0.2160    -2.3710 hc         1 KX2       0.049200
     93 H35         10.7910    -2.6030    -1.7650 hc         1 KX2       0.049200
     94 H35A        10.8620    -1.2350    -0.6530 hc         1 KX2       0.049200
     95 H36          9.0230    -2.4620     0.3390 h1         1 KX2       0.037450
     96 H36A         8.4620    -3.0670    -1.2390 h1         1 KX2       0.037450
@<TRIPOS>BOND
     1     1     2 1   
     2     1     3 2   
     3     1     4 1   
     4     2    30 1   
     5     2    47 1   
     6     4     7 2   
     7     4    32 1   
     8     5    34 1   
     9     5    48 1   
    10     5    49 1   
    11     6    13 1   
    12     6    33 1   
    13     7     9 1   
    14     7    50 1   
    15     8    15 1   
    16     8    34 1   
    17     9    11 2   
    18     9    51 1   
    19    10    34 2   
    20    11    13 1   
    21    11    52 1   
    22    12    21 1   
    23    12    53 1   
    24    13    15 1   
    25    13    54 1   
    26    14    22 1   
    27    14    37 1   
    28    15    16 1   
    29    15    55 1   
    30    16    18 2   
    31    16    35 1   
    32    17    28 2   
    33    18    20 1   
    34    18    56 1   
    35    19    31 2   
    36    20    21 1   
    37    20    36 1   
    38    20    57 1   
    39    21    22 1   
    40    21    58 1   
    41    22    23 1   
    42    22    59 1   
    43    23    24 1   
    44    23    60 1   
    45    23    61 1   
    46    24    25 1   
    47    24    38 1   
    48    24    62 1   
    49    25    26 1   
    50    25    63 1   
    51    25    64 1   
    52    26    27 2   
    53    26    31 1   
    54    27    28 1   
    55    27    39 1   
    56    28    29 1   
    57    29    30 2   
    58    29    65 1   
    59    30    31 1   
    60    32    66 1   
    61    32    67 1   
    62    32    68 1   
    63    33    69 1   
    64    33    70 1   
    65    33    71 1   
    66    35    72 1   
    67    35    73 1   
    68    35    74 1   
    69    36    75 1   
    70    36    76 1   
    71    36    77 1   
    72    37    78 1   
    73    37    79 1   
    74    37    80 1   
    75    38    81 1   
    76    38    82 1   
    77    38    83 1   
    78    39    40 1   
    79    39    84 1   
    80    40    41 1   
    81    40    85 1   
    82    40    86 1   
    83    41    42 1   
    84    41    87 1   
    85    41    88 1   
    86    42    43 1   
    87    42    46 1   
    88    43    44 1   
    89    43    89 1   
    90    43    90 1   
    91    44    45 1   
    92    44    91 1   
    93    44    92 1   
    94    45    46 1   
    95    45    93 1   
    96    45    94 1   
    97    46    95 1   
    98    46    96 1   
@<TRIPOS>SUBSTRUCTURE
     1 KX2         1 TEMP              0 ****  ****    0 ROOT
