@<TRIPOS>MOLECULE
KX3
   21    22     1     0     0
SMALL
bcc


@<TRIPOS>ATOM
      1 N1         -12.2090    -9.4340     0.3410 nb         1 KX3      -0.622000
      2 C5         -15.6570   -10.5090     1.0570 ca         1 KX3      -0.159300
      3 C6         -15.5110   -11.8600     0.9040 ca         1 KX3      -0.117000
      4 C7         -14.2650   -12.4350     0.5530 ca         1 KX3      -0.072300
      5 C8         -13.1810   -11.6170     0.3640 ca         1 KX3      -0.136300
      6 C10        -14.5490    -9.6570     0.8690 ca         1 KX3       0.288300
      7 C11        -14.1690   -13.9240     0.3520 c3         1 KX3       0.192100
      8 C9         -13.2970   -10.2210     0.5220 ca         1 KX3       0.288300
      9 C3         -13.6280    -7.5890     0.8460 ca         1 KX3       0.296900
     10 C2         -12.3750    -8.1520     0.5010 ca         1 KX3       0.295900
     11 N12        -14.5210   -14.2700    -1.0200 n8         1 KX3      -0.877800
     12 N4         -14.6910    -8.3210     1.0280 nb         1 KX3      -0.624000
     13 H1         -16.6100   -10.0740     1.3270 ha         1 KX3       0.151000
     14 H2         -16.3630   -12.5110     1.0580 ha         1 KX3       0.131000
     15 H3         -12.2140   -12.0260     0.0960 ha         1 KX3       0.155000
     16 H4         -14.7900   -14.4240     1.1070 h1         1 KX3       0.037700
     17 H5         -13.1410   -14.2450     0.5290 h1         1 KX3       0.037700
     18 H6         -13.7220    -6.5160     0.9690 h4         1 KX3       0.029100
     19 H7         -11.5150    -7.5060     0.3600 h4         1 KX3       0.029100
     20 H8         -14.4120   -15.2690    -1.1440 hn         1 KX3       0.339300
     21 H9         -15.5050   -14.0830    -1.1730 hn         1 KX3       0.339300
@<TRIPOS>BOND
     1     1     8 ar  
     2     1    10 ar  
     3     2     3 ar  
     4     2     6 ar  
     5     2    13 1   
     6     3     4 ar  
     7     3    14 1   
     8     4     5 ar  
     9     4     7 1   
    10     5     8 ar  
    11     5    15 1   
    12     6     8 ar  
    13     6    12 ar  
    14     7    11 1   
    15     7    16 1   
    16     7    17 1   
    17     9    10 ar  
    18     9    12 ar  
    19     9    18 1   
    20    10    19 1   
    21    11    20 1   
    22    11    21 1   
@<TRIPOS>SUBSTRUCTURE
     1 KX3         1 TEMP              0 ****  ****    0 ROOT
