@<TRIPOS>MOLECULE
KX3
   21    22     1     0     0
SMALL
No Charge or Current Charge


@<TRIPOS>ATOM
      1 N1         -12.2100    -9.4450     0.2580 nb         1 KX3      -0.622000
      2 C5         -15.6550   -10.4830     1.1470 ca         1 KX3      -0.076000
      3 C6         -15.5500   -11.8730     0.9720 ca         1 KX3      -0.099000
      4 C7         -14.3330   -12.4450     0.5600 ca         1 KX3      -0.072300
      5 C8         -13.2240   -11.6100     0.3260 ca         1 KX3      -0.053000
      6 C10        -14.5550    -9.6370     0.9160 ca         1 KX3       0.223000
      7 C11        -14.2110   -13.9500     0.3710 c3         1 KX3       0.192100
      8 C9         -13.3080   -10.2150     0.4950 ca         1 KX3       0.223000
      9 C3         -13.5910    -7.5370     0.8560 ca         1 KX3       0.296900
     10 C2         -12.3630    -8.1060     0.4410 ca         1 KX3       0.295900
     11 N12        -14.3270   -14.3250    -1.0500 n8         1 KX3      -0.988200
     12 N4         -14.6950    -8.2950     1.0970 nb         1 KX3      -0.624000
     13 H1         -16.6020   -10.0540     1.4650 ha         1 KX3       0.133000
     14 H2         -16.4160   -12.5050     1.1560 ha         1 KX3       0.113000
     15 H3         -12.2830   -12.0480     0.0050 ha         1 KX3       0.137000
     16 H4         -15.0000   -14.4640     0.9400 h1         1 KX3       0.037700
     17 H5         -13.2390   -14.2940     0.7520 h1         1 KX3       0.037700
     18 H6         -13.6910    -6.4620     0.9970 h4         1 KX3       0.029100
     19 H7         -11.4920    -7.4800     0.2550 h4         1 KX3       0.029100
     20 H8         -14.3190   -15.3500    -1.1260 hn         1 KX3       0.394500
     21 H9         -15.2610   -14.0630    -1.3850 hn         1 KX3       0.394500
@<TRIPOS>BOND
     1     1     8 ar  
     2     1    10 ar  
     3     2     3 ar  
     4     2     6 ar  
     5     2    13 1   
     6     3     4 ar  
     7     3    14 1   
     8     4     5 ar  
     9     4     7 1   
    10     5     8 ar  
    11     5    15 1   
    12     6     8 ar  
    13     6    12 ar  
    14     7    11 1   
    15     7    16 1   
    16     7    17 1   
    17     9    10 ar  
    18     9    12 ar  
    19     9    18 1   
    20    10    19 1   
    21    11    20 1   
    22    11    21 1   
@<TRIPOS>SUBSTRUCTURE
     1 KX3         1 TEMP              0 ****  ****    0 ROOT
