@<TRIPOS>MOLECULE
KX5
   47    49     1     0     0
SMALL
bcc


@<TRIPOS>ATOM
      1 C1          42.9620    27.9130   -27.9610 ca         1 KX5       0.024400
      2 N2          42.3780    31.2950   -32.3610 ns         1 KX5      -0.570900
      3 C5          44.0820    27.8440   -30.0930 ca         1 KX5      -0.065500
      4 C6          44.5600    28.5240   -31.3010 cc         1 KX5       0.383800
      5 C9          48.0020    31.3860   -33.0470 c          1 KX5       0.932600
      6 C10         44.8520    29.8000   -33.0720 cd         1 KX5      -0.059300
      7 C11         43.9240    29.5080   -32.0920 cc         1 KX5      -0.362900
      8 C12         42.5350    30.0050   -32.0170 c          1 KX5       0.720700
      9 C13         41.0950    31.9600   -32.4160 c3         1 KX5       0.118000
     10 CL1         42.1220    28.8200   -26.7580 cl         1 KX5      -0.108400
     11 C15         41.3880    32.7650   -30.0340 ca         1 KX5      -0.074300
     12 C16         41.9620    34.0240   -30.2090 ca         1 KX5      -0.128000
     13 C18         43.2150    33.7780   -28.1670 ca         1 KX5      -0.128000
     14 C19         42.6460    32.5270   -27.9790 ca         1 KX5      -0.125000
     15 O2          41.6010    29.2790   -31.7000 o          1 KX5      -0.630100
     16 N1          45.9180    29.0270   -32.8450 na         1 KX5       0.158400
     17 C8          48.2420    29.8630   -32.9530 c3         1 KX5      -0.239400
     18 O1          47.1670    31.7810   -33.8850 o          1 KX5      -0.839800
     19 O           48.6970    32.0910   -32.2910 o          1 KX5      -0.839800
     20 N           45.7660    28.2590   -31.7720 nd         1 KX5      -0.530800
     21 C2          43.3940    28.5500   -29.1110 ca         1 KX5      -0.085000
     22 C4          44.3430    26.4910   -29.8900 ca         1 KX5      -0.097000
     23 C3          43.9100    25.8520   -28.7420 ca         1 KX5      -0.127000
     24 C           43.2110    26.5580   -27.7740 ca         1 KX5       0.019400
     25 CL          42.6630    25.7480   -26.3570 cl         1 KX5      -0.111400
     26 C14         40.4390    32.1970   -31.0510 c3         1 KX5      -0.056100
     27 C20         41.7390    32.0290   -28.9060 ca         1 KX5      -0.128000
     28 C17         42.8680    34.5270   -29.2860 ca         1 KX5      -0.125000
     29 H1          43.2010    31.8640   -32.4730 hn         1 KX5       0.333500
     30 H2          46.9560    29.3260   -34.5990 h1         1 KX5       0.049200
     31 H3          47.4830    27.9560   -33.6310 h1         1 KX5       0.049200
     32 H4          44.8110    30.4720   -33.9130 h4         1 KX5       0.200000
     33 H5          41.2650    32.9140   -32.9130 h1         1 KX5       0.041200
     34 H6          40.4100    31.3920   -33.0490 h1         1 KX5       0.041200
     35 H7          41.7000    34.6180   -31.0770 ha         1 KX5       0.129500
     36 H8          43.9230    34.1700   -27.4480 ha         1 KX5       0.127000
     37 H9          42.9080    31.9340   -27.1110 ha         1 KX5       0.128500
     38 H10         49.1860    29.6390   -33.4620 hc         1 KX5       0.042200
     39 H11         48.3950    29.5690   -31.9110 hc         1 KX5       0.042200
     40 H13         43.2140    29.6110   -29.2250 ha         1 KX5       0.162000
     41 H14         44.8770    25.9240   -30.6410 ha         1 KX5       0.148000
     42 H15         44.1080    24.7990   -28.5980 ha         1 KX5       0.139000
     43 H16         39.5970    32.8770   -31.2080 hc         1 KX5       0.053200
     44 H17         40.0200    31.2630   -30.6780 hc         1 KX5       0.053200
     45 H18         41.2950    31.0530   -28.7480 ha         1 KX5       0.129500
     46 H19         43.3030    35.5060   -29.4390 ha         1 KX5       0.128500
     47 C7          47.1690    28.9980   -33.5840 c3         1 KX5       0.076300
@<TRIPOS>BOND
     1     1    10 1   
     2     1    21 ar  
     3     1    24 ar  
     4     2     8 1   
     5     2     9 1   
     6     2    29 1   
     7     3     4 1   
     8     3    21 ar  
     9     3    22 ar  
    10     4     7 1   
    11     4    20 2   
    12     5    17 1   
    13     5    18 1   
    14     5    19 1   
    15     6     7 2   
    16     6    16 1   
    17     6    32 1   
    18     7     8 1   
    19     8    15 2   
    20     9    26 1   
    21     9    33 1   
    22     9    34 1   
    23    11    12 ar  
    24    11    26 1   
    25    11    27 ar  
    26    12    28 ar  
    27    12    35 1   
    28    13    14 ar  
    29    13    28 ar  
    30    13    36 1   
    31    14    27 ar  
    32    14    37 1   
    33    16    20 1   
    34    16    47 1   
    35    17    38 1   
    36    17    39 1   
    37    17    47 1   
    38    21    40 1   
    39    22    23 ar  
    40    22    41 1   
    41    23    24 ar  
    42    23    42 1   
    43    24    25 1   
    44    26    43 1   
    45    26    44 1   
    46    27    45 1   
    47    28    46 1   
    48    30    47 1   
    49    31    47 1   
@<TRIPOS>SUBSTRUCTURE
     1 KX5         1 TEMP              0 ****  ****    0 ROOT
