@<TRIPOS>MOLECULE
KX5
   47    49     1     0     0
SMALL
No Charge or Current Charge


@<TRIPOS>ATOM
      1 C1          42.8020    27.6670   -27.9580 ca         1 KX5       0.116000
      2 N2          42.2140    31.1760   -32.4660 ns         1 KX5      -0.503900
      3 C5          43.9780    27.6920   -30.1130 ca         1 KX5      -0.065500
      4 C6          44.4530    28.4070   -31.3150 cc         1 KX5       0.318500
      5 C9          47.8370    31.5080   -32.8610 c          1 KX5       0.722000
      6 C10         44.7540    29.9790   -32.8770 cd         1 KX5      -0.092000
      7 C11         43.8370    29.4960   -31.9810 cc         1 KX5      -0.297600
      8 C12         42.4390    29.9660   -31.8530 c          1 KX5       0.653700
      9 C13         40.9460    31.9150   -32.4560 c3         1 KX5       0.118000
     10 Cl1         41.8110    28.5250   -26.7760 cl         1 KX5      -0.200000
     11 C15         41.5280    32.8180   -30.1130 ca         1 KX5      -0.074300
     12 C16         42.2400    33.9870   -30.4490 ca         1 KX5      -0.110000
     13 C18         43.5540    33.7910   -28.4080 ca         1 KX5      -0.110000
     14 C19         42.8440    32.6280   -28.0650 ca         1 KX5      -0.107000
     15 O2          41.5450    29.3440   -31.3030 o          1 KX5      -0.630100
     16 N1          45.8570    29.1400   -32.7400 na         1 KX5       0.179800
     17 C8          48.2370    30.0330   -32.8980 c3         1 KX5      -0.239400
     18 O1          48.0390    32.1780   -33.8610 o          1 KX5      -0.734500
     19 O           47.2970    31.9360   -31.8540 o          1 KX5      -0.734500
     20 N           45.6690    28.1660   -31.7740 nd         1 KX5      -0.530800
     21 C2          43.1900    28.3350   -29.1310 ca         1 KX5      -0.067000
     22 C4          44.4400    26.3830   -29.8410 ca         1 KX5      -0.079000
     23 C3          44.0500    25.7080   -28.6710 ca         1 KX5      -0.109000
     24 C           43.2230    26.3420   -27.7320 ca         1 KX5       0.111000
     25 Cl          42.7580    25.4700   -26.2690 cl         1 KX5      -0.203000
     26 C14         40.4390    32.2810   -31.0390 c3         1 KX5      -0.056100
     27 C20         41.8330    32.1460   -28.9130 ca         1 KX5      -0.110000
     28 C17         43.2500    34.4710   -29.6000 ca         1 KX5      -0.107000
     29 H1          43.0220    31.6240   -32.8750 hn         1 KX5       0.333500
     30 H2          46.8650    29.5920   -34.5250 h1         1 KX5       0.049200
     31 H3          47.4590    28.1640   -33.6700 h1         1 KX5       0.049200
     32 H4          44.7140    30.7730   -33.6150 h4         1 KX5       0.182000
     33 H5          41.0960    32.8410   -33.0270 h1         1 KX5       0.041200
     34 H6          40.1830    31.3230   -32.9780 h1         1 KX5       0.041200
     35 H7          42.0130    34.5200   -31.3700 ha         1 KX5       0.111500
     36 H8          44.3370    34.1650   -27.7520 ha         1 KX5       0.109000
     37 H9          43.0770    32.1010   -27.1420 ha         1 KX5       0.110500
     38 H10         49.0960    29.8930   -33.5640 hc         1 KX5       0.042200
     39 H11         48.3930    29.6400   -31.8860 hc         1 KX5       0.042200
     40 H13         42.9070    29.3760   -29.2450 ha         1 KX5       0.144000
     41 H14         45.0870    25.8740   -30.5520 ha         1 KX5       0.130000
     42 H15         44.3960    24.6930   -28.4900 ha         1 KX5       0.121000
     43 H16         39.6350    33.0190   -31.1370 hc         1 KX5       0.053200
     44 H17         39.9710    31.3940   -30.5970 hc         1 KX5       0.053200
     45 H18         41.2890    31.2450   -28.6370 ha         1 KX5       0.111500
     46 H19         43.7980    35.3720   -29.8660 ha         1 KX5       0.110500
     47 C7          47.1020    29.1930   -33.5310 c3         1 KX5       0.105600
@<TRIPOS>BOND
     1     1    10 1   
     2     1    21 ar  
     3     1    24 ar  
     4     2     8 1   
     5     2     9 1   
     6     2    29 1   
     7     3     4 1   
     8     3    21 ar  
     9     3    22 ar  
    10     4     7 1   
    11     4    20 2   
    12     5    17 1   
    13     5    18 1   
    14     5    19 1   
    15     6     7 2   
    16     6    16 1   
    17     6    32 1   
    18     7     8 1   
    19     8    15 2   
    20     9    26 1   
    21     9    33 1   
    22     9    34 1   
    23    11    12 ar  
    24    11    26 1   
    25    11    27 ar  
    26    12    28 ar  
    27    12    35 1   
    28    13    14 ar  
    29    13    28 ar  
    30    13    36 1   
    31    14    27 ar  
    32    14    37 1   
    33    16    20 1   
    34    16    47 1   
    35    17    38 1   
    36    17    39 1   
    37    17    47 1   
    38    21    40 1   
    39    22    23 ar  
    40    22    41 1   
    41    23    24 ar  
    42    23    42 1   
    43    24    25 1   
    44    26    43 1   
    45    26    44 1   
    46    27    45 1   
    47    28    46 1   
    48    30    47 1   
    49    31    47 1   
@<TRIPOS>SUBSTRUCTURE
     1 KX5         1 TEMP              0 ****  ****    0 ROOT
