@<TRIPOS>MOLECULE
KX7
   36    38     1     0     0
SMALL
No Charge or Current Charge


@<TRIPOS>ATOM
      1 C01          1.5610     1.3700    -0.9460 c6         1 KX7       0.160200
      2 C02          0.0730     1.6160    -0.7730 c2         1 KX7      -0.295200
      3 C03         -0.7060     0.7110    -0.1710 ce         1 KX7       0.103400
      4 N04         -0.1280    -0.4370     0.3530 ns         1 KX7      -0.423100
      5 C05          1.2050    -0.7330     0.4110 c          1 KX7       0.627000
      6 O06          1.5690    -1.7550     0.9720 o          1 KX7      -0.606000
      7 N07          2.1060     0.2100    -0.1700 n          1 KX7      -0.235400
      8 C08          3.5660     0.1120    -0.1100 ca         1 KX7      -0.126000
      9 C09          4.3050     0.3340    -1.3000 ca         1 KX7      -0.089000
     10 C10          5.7000     0.1680    -1.3390 ca         1 KX7      -0.137000
     11 C11          6.3910    -0.2680    -0.2020 ca         1 KX7      -0.080000
     12 C12          5.6750    -0.5690     0.9640 ca         1 KX7      -0.140000
     13 C13          4.2790    -0.4190     1.0050 ca         1 KX7       0.158100
     14 O14          3.6450    -0.7580     2.1590 oh         1 KX7      -0.566100
     15 C15         -2.1780     0.8690     0.0010 ca         1 KX7      -0.073800
     16 C16         -3.0480    -0.2250    -0.1950 ca         1 KX7      -0.038000
     17 C17         -4.4470    -0.0770    -0.0320 ca         1 KX7      -0.176200
     18 C18         -4.9670     1.1870     0.3290 ca         1 KX7      -0.036000
     19 C19         -4.1020     2.2780     0.5210 ca         1 KX7      -0.119000
     20 C20         -2.7170     2.1210     0.3570 ca         1 KX7      -0.050000
     21 N21         -5.3650    -1.2430    -0.2450 no         1 KX7       0.693200
     22 O22         -4.8650    -2.3340    -0.5490 o          1 KX7      -0.392000
     23 O23         -6.5820    -1.0630    -0.1030 o          1 KX7      -0.392000
     24 H012         1.7460     1.2020    -2.0150 h1         1 KX7       0.059700
     25 H011         2.1120     2.2770    -0.6580 h1         1 KX7       0.059700
     26 H021        -0.3320     2.5350    -1.1990 ha         1 KX7       0.203000
     27 H041        -0.7560    -1.0870     0.8080 hn         1 KX7       0.347500
     28 H091         3.8100     0.6450    -2.2160 ha         1 KX7       0.116000
     29 H101         6.2440     0.3710    -2.2590 ha         1 KX7       0.118000
     30 H111         7.4710    -0.3950    -0.2310 ha         1 KX7       0.117000
     31 H121         6.2040    -0.9380     1.8390 ha         1 KX7       0.131000
     32 H141         2.7850    -1.1700     1.8780 ho         1 KX7       0.504000
     33 H161        -2.6310    -1.1870    -0.4900 ha         1 KX7       0.159000
     34 H181        -6.0380     1.3350     0.4630 ha         1 KX7       0.156000
     35 H191        -4.5080     3.2480     0.8000 ha         1 KX7       0.133000
     36 H201        -2.0600     2.9740     0.5170 ha         1 KX7       0.130000
@<TRIPOS>BOND
     1     1     2 1   
     2     1     7 1   
     3     1    24 1   
     4     1    25 1   
     5     2     3 2   
     6     2    26 1   
     7     3     4 1   
     8     3    15 1   
     9     4     5 1   
    10     4    27 1   
    11     5     6 2   
    12     5     7 1   
    13     7     8 1   
    14     8     9 ar  
    15     8    13 ar  
    16     9    10 ar  
    17     9    28 1   
    18    10    11 ar  
    19    10    29 1   
    20    11    12 ar  
    21    11    30 1   
    22    12    13 ar  
    23    12    31 1   
    24    13    14 1   
    25    14    32 1   
    26    15    16 ar  
    27    15    20 ar  
    28    16    17 ar  
    29    16    33 1   
    30    17    18 ar  
    31    17    21 1   
    32    18    19 ar  
    33    18    34 1   
    34    19    20 ar  
    35    19    35 1   
    36    20    36 1   
    37    21    22 1   
    38    21    23 1   
@<TRIPOS>SUBSTRUCTURE
     1 KX7         1 TEMP              0 ****  ****    0 ROOT
