@<TRIPOS>MOLECULE
KX7
   36    38     1     0     0
SMALL
abcg2


@<TRIPOS>ATOM
      1 C01          1.6660     1.7220    -0.0510 c6         1 KX7       0.160200
      2 C02          0.1990     1.8470    -0.2920 c2         1 KX7      -0.295200
      3 C03         -0.6300     0.9450     0.2310 ce         1 KX7       0.103400
      4 N04         -0.0960    -0.1290     0.9390 ns         1 KX7      -0.423100
      5 C05          1.2070    -0.5150     0.8570 c          1 KX7       0.627000
      6 O06          1.5870    -1.5740     1.3620 o          1 KX7      -0.606000
      7 N07          2.0350     0.3210     0.1860 n          1 KX7      -0.235400
      8 C08          3.3740    -0.0590    -0.1130 ca         1 KX7      -0.126000
      9 C09          3.8080     0.0690    -1.4300 ca         1 KX7      -0.089000
     10 C10          5.1270    -0.1680    -1.7760 ca         1 KX7      -0.137000
     11 C11          6.0290    -0.5550    -0.7920 ca         1 KX7      -0.080000
     12 C12          5.6030    -0.7240     0.5130 ca         1 KX7      -0.140000
     13 C13          4.2770    -0.4810     0.8720 ca         1 KX7       0.158100
     14 O14          3.9190    -0.6450     2.1600 oh         1 KX7      -0.566100
     15 C15         -2.0920     0.9680     0.0670 ca         1 KX7      -0.073800
     16 C16         -2.8090    -0.2160    -0.0650 ca         1 KX7      -0.038000
     17 C17         -4.1820    -0.1600    -0.2420 ca         1 KX7      -0.176200
     18 C18         -4.8720     1.0420    -0.2900 ca         1 KX7      -0.036000
     19 C19         -4.1510     2.2170    -0.1510 ca         1 KX7      -0.119000
     20 C20         -2.7780     2.1830     0.0330 ca         1 KX7      -0.050000
     21 N21         -4.9220    -1.4070    -0.3860 no         1 KX7       0.693200
     22 O22         -4.3120    -2.4450    -0.2830 o          1 KX7      -0.392000
     23 O23         -6.1090    -1.3400    -0.5990 o          1 KX7      -0.392000
     24 H012         2.2150     2.0780    -0.9190 h1         1 KX7       0.059700
     25 H011         1.9870     2.3390     0.7980 h1         1 KX7       0.059700
     26 H021        -0.1650     2.6560    -0.9070 ha         1 KX7       0.203000
     27 H041        -0.6930    -0.6990     1.5190 hn         1 KX7       0.347500
     28 H091         3.0960     0.3710    -2.1890 ha         1 KX7       0.116000
     29 H101         5.4450    -0.0560    -2.8040 ha         1 KX7       0.118000
     30 H111         7.0650    -0.7420    -1.0440 ha         1 KX7       0.117000
     31 H121         6.2970    -1.0440     1.2810 ha         1 KX7       0.131000
     32 H141         3.0370    -1.0720     2.1640 ho         1 KX7       0.504000
     33 H161        -2.3010    -1.1710    -0.0520 ha         1 KX7       0.159000
     34 H181        -5.9430     1.0730    -0.4210 ha         1 KX7       0.156000
     35 H191        -4.6680     3.1660    -0.1730 ha         1 KX7       0.133000
     36 H201        -2.2340     3.1090     0.1690 ha         1 KX7       0.130000
@<TRIPOS>BOND
     1     1     2 1   
     2     1     7 1   
     3     1    24 1   
     4     1    25 1   
     5     2     3 2   
     6     2    26 1   
     7     3     4 1   
     8     3    15 1   
     9     4     5 1   
    10     4    27 1   
    11     5     6 2   
    12     5     7 1   
    13     7     8 1   
    14     8     9 ar  
    15     8    13 ar  
    16     9    10 ar  
    17     9    28 1   
    18    10    11 ar  
    19    10    29 1   
    20    11    12 ar  
    21    11    30 1   
    22    12    13 ar  
    23    12    31 1   
    24    13    14 1   
    25    14    32 1   
    26    15    16 ar  
    27    15    20 ar  
    28    16    17 ar  
    29    16    33 1   
    30    17    18 ar  
    31    17    21 1   
    32    18    19 ar  
    33    18    34 1   
    34    19    20 ar  
    35    19    35 1   
    36    20    36 1   
    37    21    22 1   
    38    21    23 1   
@<TRIPOS>SUBSTRUCTURE
     1 KX7         1 TEMP              0 ****  ****    0 ROOT
