@<TRIPOS>MOLECULE
KX8
   47    49     1     0     0
SMALL
abcg2


@<TRIPOS>ATOM
      1 C1          43.5810    32.7550   -31.9930 c3         1 KX8       0.149300
      2 C2          43.1730    32.8920   -30.5440 ca         1 KX8      -0.106300
      3 C3          44.0990    33.3260   -29.5970 ca         1 KX8      -0.091000
      4 C4          43.7460    33.4300   -28.2590 ca         1 KX8      -0.116500
      5 C5          42.4590    33.1000   -27.8500 ca         1 KX8      -0.113000
      6 C6          41.5300    32.6720   -28.7870 ca         1 KX8      -0.116500
      7 C7          41.8890    32.5670   -30.1260 ca         1 KX8      -0.091000
      8 C8          45.7200    29.6840   -31.9910 cc         1 KX8      -0.297600
      9 C9          46.8130    29.8450   -32.8180 cd         1 KX8      -0.100000
     10 C11         49.4300    29.6680   -34.0610 c3         1 KX8      -0.086400
     11 C12         49.7860    30.9670   -33.3300 c3         1 KX8      -0.220400
     12 C15         45.2510    27.9020   -30.1540 ca         1 KX8      -0.074500
     13 C17         44.5020    25.9220   -28.9940 ca         1 KX8      -0.111000
     14 C18         43.7940    26.7050   -28.0950 ca         1 KX8       0.111000
     15 C19         43.8270    28.0900   -28.2180 ca         1 KX8       0.117000
     16 C20         44.5530    28.6820   -29.2360 ca         1 KX8      -0.061000
     17 CL1         42.9690    29.0910   -27.1070 cl         1 KX8      -0.190000
     18 CL          42.8870    25.9540   -26.8400 cl         1 KX8      -0.201000
     19 C16         45.2230    26.5160   -30.0150 ca         1 KX8      -0.080000
     20 C14         46.0210    28.5310   -31.2320 cc         1 KX8       0.326500
     21 N2          47.2010    28.0460   -31.5790 nd         1 KX8      -0.549800
     22 N1          47.6590    28.8450   -32.5380 na         1 KX8       0.153800
     23 C10         48.9400    28.5450   -33.1640 c3         1 KX8       0.083600
     24 C13         49.2610    32.2690   -33.9760 c          1 KX8       0.715000
     25 O2          48.1980    32.1950   -34.6350 o          1 KX8      -0.735000
     26 O1          49.9170    33.3010   -33.7480 o          1 KX8      -0.735000
     27 C           44.4870    30.4920   -31.9750 c          1 KX8       0.649700
     28 O           43.3840    29.9930   -31.8030 o          1 KX8      -0.618100
     29 N           44.6670    31.8140   -32.1680 ns         1 KX8      -0.492900
     30 H1          43.9230    33.7140   -32.3830 h1         1 KX8       0.058700
     31 H2          42.7270    32.4520   -32.5980 h1         1 KX8       0.058700
     32 H3          45.1050    33.5840   -29.9060 ha         1 KX8       0.116000
     33 H4          44.4750    33.7690   -27.5350 ha         1 KX8       0.106000
     34 H5          42.1840    33.1780   -26.8060 ha         1 KX8       0.102000
     35 H6          40.5270    32.4100   -28.4770 ha         1 KX8       0.106000
     36 H7          41.1630    32.2210   -30.8530 ha         1 KX8       0.116000
     37 H8          47.0270    30.5930   -33.5700 h4         1 KX8       0.227000
     38 H9          50.3090    29.2790   -34.5800 hc         1 KX8       0.053700
     39 H10         48.6910    29.8590   -34.8410 hc         1 KX8       0.053700
     40 H11         49.3820    30.9490   -32.3110 hc         1 KX8       0.028200
     41 H12         50.8670    31.0400   -33.2010 hc         1 KX8       0.028200
     42 H13         44.4790    24.8450   -28.9000 ha         1 KX8       0.121000
     43 H14         44.5870    29.7620   -29.2910 ha         1 KX8       0.144000
     44 H15         45.7580    25.8910   -30.7180 ha         1 KX8       0.130000
     45 H16         48.8280    27.6240   -33.7380 h1         1 KX8       0.049200
     46 H17         49.6550    28.3500   -32.3640 h1         1 KX8       0.049200
     47 H19         45.6050    32.1800   -32.1660 hn         1 KX8       0.334500
@<TRIPOS>BOND
     1     1     2 1   
     2     1    29 1   
     3     1    30 1   
     4     1    31 1   
     5     2     3 ar  
     6     2     7 ar  
     7     3     4 ar  
     8     3    32 1   
     9     4     5 ar  
    10     4    33 1   
    11     5     6 ar  
    12     5    34 1   
    13     6     7 ar  
    14     6    35 1   
    15     7    36 1   
    16     8     9 2   
    17     8    20 1   
    18     8    27 1   
    19     9    22 1   
    20     9    37 1   
    21    10    11 1   
    22    10    23 1   
    23    10    38 1   
    24    10    39 1   
    25    11    24 1   
    26    11    40 1   
    27    11    41 1   
    28    12    16 ar  
    29    12    19 ar  
    30    12    20 1   
    31    13    14 ar  
    32    13    19 ar  
    33    13    42 1   
    34    14    15 ar  
    35    14    18 1   
    36    15    16 ar  
    37    15    17 1   
    38    16    43 1   
    39    19    44 1   
    40    20    21 2   
    41    21    22 1   
    42    22    23 1   
    43    23    45 1   
    44    23    46 1   
    45    24    25 1   
    46    24    26 1   
    47    27    28 2   
    48    27    29 1   
    49    29    47 1   
@<TRIPOS>SUBSTRUCTURE
     1 KX8         1 TEMP              0 ****  ****    0 ROOT
