@<TRIPOS>MOLECULE
KX8
   47    49     1     0     0
SMALL
No Charge or Current Charge


@<TRIPOS>ATOM
      1 C1          42.5490    32.2140   -32.0440 c3         1 KX8       0.149300
      2 C2          42.6490    33.0530   -30.7780 ca         1 KX8      -0.106300
      3 C3          43.1910    34.3530   -30.8270 ca         1 KX8      -0.091000
      4 C4          43.2890    35.1240   -29.6560 ca         1 KX8      -0.116500
      5 C5          42.8480    34.6010   -28.4290 ca         1 KX8      -0.113000
      6 C6          42.3100    33.3040   -28.3740 ca         1 KX8      -0.116500
      7 C7          42.2100    32.5330   -29.5440 ca         1 KX8      -0.091000
      8 C8          45.2500    29.5500   -32.0590 cc         1 KX8      -0.297600
      9 C9          46.1370    30.0480   -32.9790 cd         1 KX8      -0.100000
     10 C11         49.2980    30.3460   -33.6070 c3         1 KX8      -0.086400
     11 C12         49.9270    30.3290   -32.1880 c3         1 KX8      -0.220400
     12 C15         45.3510    27.5130   -30.4360 ca         1 KX8      -0.074500
     13 C17         45.3300    25.3480   -29.2770 ca         1 KX8      -0.111000
     14 C18         44.6430    25.9180   -28.1940 ca         1 KX8       0.111000
     15 C19         44.3440    27.2940   -28.2070 ca         1 KX8       0.117000
     16 C20         44.7110    28.0820   -29.3110 ca         1 KX8      -0.061000
     17 Cl1         43.5350    28.0620   -26.8400 cl         1 KX8      -0.190000
     18 Cl          44.2020    24.8970   -26.8250 cl         1 KX8      -0.201000
     19 C16         45.6960    26.1420   -30.3790 ca         1 KX8      -0.080000
     20 C14         45.8030    28.3350   -31.5780 cc         1 KX8       0.326500
     21 N2          46.9500    28.0440   -32.1670 nd         1 KX8      -0.549800
     22 N1          47.1600    29.1040   -33.0310 na         1 KX8       0.153800
     23 C10         48.3540    29.1540   -33.8970 c3         1 KX8       0.083600
     24 C13         50.9110    31.4990   -32.0250 c          1 KX8       0.715000
     25 O2          50.4740    32.5680   -31.6280 o          1 KX8      -0.735000
     26 O1          52.0740    31.3220   -32.3540 o          1 KX8      -0.735000
     27 C           43.9230    30.1310   -31.7510 c          1 KX8       0.649700
     28 O           43.0300    29.5510   -31.1540 o          1 KX8      -0.618100
     29 N           43.7500    31.4030   -32.2410 ns         1 KX8      -0.492900
     30 H1          42.4240    32.8720   -32.9140 h1         1 KX8       0.058700
     31 H2          41.6650    31.5640   -31.9950 h1         1 KX8       0.058700
     32 H3          43.5370    34.7660   -31.7730 ha         1 KX8       0.116000
     33 H4          43.7070    36.1280   -29.7000 ha         1 KX8       0.106000
     34 H5          42.9250    35.1980   -27.5230 ha         1 KX8       0.102000
     35 H6          41.9700    32.8970   -27.4240 ha         1 KX8       0.106000
     36 H7          41.7950    31.5290   -29.4930 ha         1 KX8       0.116000
     37 H8          46.1230    30.9220   -33.6230 h4         1 KX8       0.227000
     38 H9          50.1020    30.3340   -34.3530 hc         1 KX8       0.053700
     39 H10         48.7510    31.2860   -33.7540 hc         1 KX8       0.053700
     40 H11         49.0940    30.4350   -31.4820 hc         1 KX8       0.028200
     41 H12         50.4570    29.3720   -32.1050 hc         1 KX8       0.028200
     42 H13         45.5830    24.2910   -29.2620 ha         1 KX8       0.121000
     43 H14         44.5280    29.1500   -29.2600 ha         1 KX8       0.144000
     44 H15         46.2320    25.6780   -31.2050 ha         1 KX8       0.130000
     45 H16         48.0130    29.2140   -34.9380 h1         1 KX8       0.049200
     46 H17         48.9130    28.2160   -33.7870 h1         1 KX8       0.049200
     47 H19         44.5430    31.8270   -32.7000 hn         1 KX8       0.334500
@<TRIPOS>BOND
     1     1     2 1   
     2     1    29 1   
     3     1    30 1   
     4     1    31 1   
     5     2     3 ar  
     6     2     7 ar  
     7     3     4 ar  
     8     3    32 1   
     9     4     5 ar  
    10     4    33 1   
    11     5     6 ar  
    12     5    34 1   
    13     6     7 ar  
    14     6    35 1   
    15     7    36 1   
    16     8     9 2   
    17     8    20 1   
    18     8    27 1   
    19     9    22 1   
    20     9    37 1   
    21    10    11 1   
    22    10    23 1   
    23    10    38 1   
    24    10    39 1   
    25    11    24 1   
    26    11    40 1   
    27    11    41 1   
    28    12    16 ar  
    29    12    19 ar  
    30    12    20 1   
    31    13    14 ar  
    32    13    19 ar  
    33    13    42 1   
    34    14    15 ar  
    35    14    18 1   
    36    15    16 ar  
    37    15    17 1   
    38    16    43 1   
    39    19    44 1   
    40    20    21 2   
    41    21    22 1   
    42    22    23 1   
    43    23    45 1   
    44    23    46 1   
    45    24    25 1   
    46    24    26 1   
    47    27    28 2   
    48    27    29 1   
    49    29    47 1   
@<TRIPOS>SUBSTRUCTURE
     1 KX8         1 TEMP              0 ****  ****    0 ROOT
