@<TRIPOS>MOLECULE
KX9
   38    40     1     0     0
SMALL
abcg2


@<TRIPOS>ATOM
      1 N1           7.7390     2.3810    18.1440 nb         1 KX9      -0.646000
      2 N3           4.7970    -1.0200    20.3540 nc         1 KX9      -0.505800
      3 C4           8.3580     1.8770    19.2080 ca         1 KX9       0.348900
      4 C5           6.4580     2.0490    17.9510 ca         1 KX9       0.329900
      5 C6           5.7520     1.2260    18.8110 ca         1 KX9      -0.134000
      6 C7           6.3940     0.7200    19.9360 ca         1 KX9       0.020800
      7 C8           5.6730    -0.0610    22.1970 cc         1 KX9      -0.154000
      8 C10          4.2450    -1.5590    21.4320 cd         1 KX9       0.249900
      9 C13         13.2610    -0.5490    21.3100 ca         1 KX9      -0.099000
     10 C15         12.1650    -2.5860    21.8980 ca         1 KX9       0.125000
     11 CL          12.1220    -4.3390    21.9180 cl         1 KX9      -0.209000
     12 C14         13.2470    -1.9410    21.3170 ca         1 KX9      -0.095000
     13 C12         12.2180     0.1730    21.8750 ca         1 KX9      -0.094000
     14 C16         11.1120    -1.8810    22.4630 ca         1 KX9      -0.100000
     15 C11         11.1350    -0.4880    22.4570 ca         1 KX9      -0.083300
     16 C1           9.9910     0.2910    23.0840 c3         1 KX9      -0.090400
     17 C           10.4420     1.1250    24.2840 c3         1 KX9      -0.075100
     18 C2           9.3430     1.1680    22.0120 c          1 KX9       0.602100
     19 O            9.6020     2.3530    21.8680 o          1 KX9      -0.570100
     20 C3           7.7420     1.0380    20.1410 ca         1 KX9      -0.093000
     21 N2           5.6820    -0.1060    20.8320 na         1 KX9       0.192000
     22 C9           4.7560    -0.9900    22.6190 cd         1 KX9      -0.224000
     23 H1           9.4020     2.1280    19.3400 h4         1 KX9       0.043100
     24 H2           5.9730     2.4610    17.0740 h4         1 KX9       0.029100
     25 H3           4.7150     0.9880    18.6290 ha         1 KX9       0.148000
     26 H4           6.2910     0.6300    22.7430 h4         1 KX9       0.160000
     27 H5           3.5080    -2.3390    21.3240 h4         1 KX9       0.043100
     28 H7          14.0560    -2.5090    20.8810 ha         1 KX9       0.133000
     29 H8          12.2420     1.2540    21.8600 ha         1 KX9       0.132000
     30 H9          10.2800    -2.4110    22.9070 ha         1 KX9       0.126000
     31 H10          9.2420    -0.4310    23.4150 hc         1 KX9       0.059700
     32 H11         10.8710     0.4710    25.0430 hc         1 KX9       0.050367
     33 H12         11.1950     1.8550    23.9890 hc         1 KX9       0.050367
     34 H13          9.5970     1.6590    24.7190 hc         1 KX9       0.050367
     35 H15          4.4860    -1.2200    23.6350 ha         1 KX9       0.150000
     36 N            8.4660     0.4920    21.2120 ns         1 KX9      -0.159000
     37 H6          14.0960    -0.0290    20.8580 ha         1 KX9       0.124000
     38 H14          8.2490    -0.4590    21.4720 hn         1 KX9       0.164000
@<TRIPOS>BOND
     1     1     3 ar  
     2     1     4 ar  
     3     2     8 2   
     4     2    21 1   
     5     3    20 ar  
     6     3    23 1   
     7     4     5 ar  
     8     4    24 1   
     9     5     6 ar  
    10     5    25 1   
    11     6    20 ar  
    12     6    21 1   
    13     7    21 1   
    14     7    22 2   
    15     7    26 1   
    16     8    22 1   
    17     8    27 1   
    18     9    12 ar  
    19     9    13 ar  
    20     9    37 1   
    21    10    11 1   
    22    10    12 ar  
    23    10    14 ar  
    24    12    28 1   
    25    13    15 ar  
    26    13    29 1   
    27    14    15 ar  
    28    14    30 1   
    29    15    16 1   
    30    16    17 1   
    31    16    18 1   
    32    16    31 1   
    33    17    32 1   
    34    17    33 1   
    35    17    34 1   
    36    18    19 2   
    37    18    36 1   
    38    20    36 1   
    39    22    35 1   
    40    36    38 1   
@<TRIPOS>SUBSTRUCTURE
     1 KX9         1 TEMP              0 ****  ****    0 ROOT
