@<TRIPOS>MOLECULE
KX9
   38    40     1     0     0
SMALL
No Charge or Current Charge


@<TRIPOS>ATOM
      1 N1           7.2480     2.6960    18.1080 nb         1 KX9      -0.646000
      2 N3           5.2780    -1.3430    20.4110 nc         1 KX9      -0.505800
      3 C4           7.9930     2.2300    19.1390 ca         1 KX9       0.348900
      4 C5           5.9820     2.2430    17.9850 ca         1 KX9       0.329900
      5 C6           5.4150     1.3200    18.8740 ca         1 KX9      -0.134000
      6 C7           6.1800     0.8350    19.9490 ca         1 KX9       0.020800
      7 C8           5.4200     0.1840    22.1880 cc         1 KX9      -0.154000
      8 C10          4.8380    -1.8880    21.5310 cd         1 KX9       0.249900
      9 C13         13.6500    -0.8210    21.8790 ca         1 KX9      -0.099000
     10 C15         12.2080    -2.7770    21.8770 ca         1 KX9       0.125000
     11 Cl          11.9870    -4.5070    21.6480 cl         1 KX9      -0.209000
     12 C14         13.4770    -2.2040    21.6990 ca         1 KX9      -0.095000
     13 C12         12.5550    -0.0160    22.2400 ca         1 KX9      -0.094000
     14 C16         11.1130    -1.9730    22.2370 ca         1 KX9      -0.100000
     15 C11         11.2770    -0.5850    22.4260 ca         1 KX9      -0.083300
     16 C1          10.0710     0.2790    22.8150 c3         1 KX9      -0.090400
     17 C           10.3420     1.1630    24.0580 c3         1 KX9      -0.075100
     18 C2           9.5840     1.1220    21.6130 c          1 KX9       0.602100
     19 O           10.2760     1.9990    21.1080 o          1 KX9      -0.570100
     20 C3           7.5100     1.2980    20.0930 ca         1 KX9      -0.093000
     21 N2           5.6180    -0.0820    20.8410 na         1 KX9       0.192000
     22 C9           4.9070    -1.0020    22.6340 cd         1 KX9      -0.224000
     23 H1           9.0070     2.6180    19.1770 h4         1 KX9       0.043100
     24 H2           5.4050     2.6330    17.1470 h4         1 KX9       0.029100
     25 H3           4.3910     0.9900    18.7260 ha         1 KX9       0.148000
     26 H4           5.6430     1.1290    22.6680 h4         1 KX9       0.160000
     27 H5           4.4820    -2.9110    21.5210 h4         1 KX9       0.043100
     28 H7          14.3210    -2.8290    21.4190 ha         1 KX9       0.133000
     29 H8          12.7060     1.0540    22.3660 ha         1 KX9       0.132000
     30 H9          10.1390    -2.4360    22.3700 ha         1 KX9       0.126000
     31 H10          9.2500    -0.3920    23.0950 hc         1 KX9       0.059700
     32 H11         10.6820     0.5480    24.9000 hc         1 KX9       0.050367
     33 H12         11.1080     1.9210    23.8560 hc         1 KX9       0.050367
     34 H13          9.4270     1.6830    24.3660 hc         1 KX9       0.050367
     35 H15          4.6040    -1.2290    23.6510 ha         1 KX9       0.150000
     36 N            8.3110     0.7940    21.1650 ns         1 KX9      -0.159000
     37 H6          14.6310    -0.3730    21.7380 ha         1 KX9       0.124000
     38 H14          7.8680     0.0520    21.6920 hn         1 KX9       0.164000
@<TRIPOS>BOND
     1     1     3 ar  
     2     1     4 ar  
     3     2     8 2   
     4     2    21 1   
     5     3    20 ar  
     6     3    23 1   
     7     4     5 ar  
     8     4    24 1   
     9     5     6 ar  
    10     5    25 1   
    11     6    20 ar  
    12     6    21 1   
    13     7    21 1   
    14     7    22 2   
    15     7    26 1   
    16     8    22 1   
    17     8    27 1   
    18     9    12 ar  
    19     9    13 ar  
    20     9    37 1   
    21    10    11 1   
    22    10    12 ar  
    23    10    14 ar  
    24    12    28 1   
    25    13    15 ar  
    26    13    29 1   
    27    14    15 ar  
    28    14    30 1   
    29    15    16 1   
    30    16    17 1   
    31    16    18 1   
    32    16    31 1   
    33    17    32 1   
    34    17    33 1   
    35    17    34 1   
    36    18    19 2   
    37    18    36 1   
    38    20    36 1   
    39    22    35 1   
    40    36    38 1   
@<TRIPOS>SUBSTRUCTURE
     1 KX9         1 TEMP              0 ****  ****    0 ROOT
