@<TRIPOS>MOLECULE
KXA
   48    51     1     0     0
SMALL
abcg2


@<TRIPOS>ATOM
      1 C01          5.1020    -1.8730     2.0420 ca         1 KXA      -0.147000
      2 C02          5.7350    -2.2380     0.8660 ca         1 KXA      -0.064000
      3 C03         -2.8530    -0.3280     1.4690 ca         1 KXA      -0.060000
      4 C04          3.9810    -1.0540     1.9820 ca         1 KXA      -0.060000
      5 C05          5.2640    -1.8030    -0.3680 ca         1 KXA      -0.198000
      6 C06         -3.6880    -1.4230     1.6120 ca         1 KXA      -0.108000
      7 C07         -3.0390    -2.1840    -0.5880 ca         1 KXA      -0.106000
      8 C08         -2.0950    -0.1380     0.3180 cp         1 KXA      -0.044000
      9 C09         -1.1830     1.0230     0.2020 cp         1 KXA       0.029000
     10 C10          0.1850     0.8570     0.3470 ca         1 KXA      -0.121300
     11 C11         -1.6470     2.3130    -0.0500 ca         1 KXA      -0.093300
     12 C12          3.4990    -0.6120     0.7620 ca         1 KXA      -0.082000
     13 C13          4.1370    -0.9870    -0.4300 ca         1 KXA       0.148100
     14 C14         -3.7700    -2.3420     0.5780 ca         1 KXA       0.129000
     15 C15         -2.2080    -1.0800    -0.7000 ca         1 KXA       0.132000
     16 C16          0.9980     1.9620     0.2520 ca         1 KXA       0.291500
     17 C17         -0.7180     3.3750    -0.1310 ca         1 KXA       0.349300
     18 C18          2.4100     1.5420     0.4420 c          1 KXA       0.483500
     19 C19          1.0130    -0.3540     0.6170 c5         1 KXA       0.159300
     20 C20         -1.1660     4.7790    -0.4140 c3         1 KXA      -0.146400
     21 C21          4.1810    -0.8740    -2.7960 c3         1 KXA       0.147900
     22 C22         -3.1210     2.5770    -0.1960 c3         1 KXA       0.192100
     23 N23          0.5900     3.1960     0.0210 nb         1 KXA      -0.601000
     24 N24          2.3530     0.2060     0.6930 n          1 KXA      -0.241400
     25 N25         -3.7150     2.8430     1.1090 n8         1 KXA      -0.997200
     26 O27          3.5910    -0.5180    -1.5600 os         1 KXA      -0.331100
     27 CL1         -4.8060    -3.7170     0.7370 cl         1 KXA      -0.190000
     28 CL2         -1.3150    -0.8710    -2.1660 cl         1 KXA      -0.185000
     29 H01          5.4750    -2.2130     2.9980 ha         1 KXA       0.119000
     30 H02          6.6110    -2.8730     0.8960 ha         1 KXA       0.113000
     31 H03         -2.7950     0.4060     2.2600 ha         1 KXA       0.144000
     32 H04          3.4700    -0.7520     2.8870 ha         1 KXA       0.124000
     33 H05          5.7830    -2.1080    -1.2660 ha         1 KXA       0.119000
     34 H06         -4.2670    -1.5550     2.5160 ha         1 KXA       0.137000
     35 H07         -3.1160    -2.9000    -1.3940 ha         1 KXA       0.146000
     36 H19          0.7360    -0.8450     1.5530 h1         1 KXA       0.069200
     37 H19A         0.9430    -1.0930    -0.1850 h1         1 KXA       0.069200
     38 H20         -1.9560     5.1070     0.2610 hc         1 KXA       0.053033
     39 H20A        -0.3260     5.4620    -0.3100 hc         1 KXA       0.053033
     40 H20B        -1.5550     4.8740    -1.4300 hc         1 KXA       0.053033
     41 H21          5.2070    -0.5060    -2.8780 h1         1 KXA       0.043033
     42 H21A         4.1780    -1.9550    -2.9510 h1         1 KXA       0.043033
     43 H21B         3.5780    -0.4060    -3.5700 h1         1 KXA       0.043033
     44 H22         -3.2790     3.3770    -0.9280 h1         1 KXA       0.043700
     45 H22A        -3.6060     1.6910    -0.6100 h1         1 KXA       0.043700
     46 HN25        -3.3640     3.7200     1.4750 hn         1 KXA       0.397000
     47 HN2A        -4.7120     2.9750     0.9940 hn         1 KXA       0.397000
     48 O26          3.4110     2.2270     0.3920 o          1 KXA      -0.496000
@<TRIPOS>BOND
     1     1     2 ar  
     2     1     4 ar  
     3     1    29 1   
     4     2     5 ar  
     5     2    30 1   
     6     3     6 ar  
     7     3     8 ar  
     8     3    31 1   
     9     4    12 ar  
    10     4    32 1   
    11     5    13 ar  
    12     5    33 1   
    13     6    14 ar  
    14     6    34 1   
    15     7    14 ar  
    16     7    15 ar  
    17     7    35 1   
    18     8     9 1   
    19     8    15 ar  
    20     9    10 ar  
    21     9    11 ar  
    22    10    16 ar  
    23    10    19 1   
    24    11    17 ar  
    25    11    22 1   
    26    12    13 ar  
    27    12    24 1   
    28    13    26 1   
    29    14    27 1   
    30    15    28 1   
    31    16    18 1   
    32    16    23 ar  
    33    17    20 1   
    34    17    23 ar  
    35    18    24 1   
    36    18    48 2   
    37    19    24 1   
    38    19    36 1   
    39    19    37 1   
    40    20    38 1   
    41    20    39 1   
    42    20    40 1   
    43    21    26 1   
    44    21    41 1   
    45    21    42 1   
    46    21    43 1   
    47    22    25 1   
    48    22    44 1   
    49    22    45 1   
    50    25    46 1   
    51    25    47 1   
@<TRIPOS>SUBSTRUCTURE
     1 KXA         1 TEMP              0 ****  ****    0 ROOT
