@<TRIPOS>MOLECULE
KXA
   48    51     1     0     0
SMALL
No Charge or Current Charge


@<TRIPOS>ATOM
      1 C01          4.5740    -2.4110     1.8440 ca         1 KXA      -0.147000
      2 C02          5.6390    -2.4610     0.9350 ca         1 KXA      -0.064000
      3 C03         -2.7570    -0.2760     1.8040 ca         1 KXA      -0.060000
      4 C04          3.4330    -1.6470     1.5520 ca         1 KXA      -0.060000
      5 C05          5.5690    -1.7350    -0.2640 ca         1 KXA      -0.198000
      6 C06         -3.6010    -1.3540     2.1220 ca         1 KXA      -0.108000
      7 C07         -3.3760    -2.1980    -0.1480 ca         1 KXA      -0.106000
      8 C08         -2.2060    -0.1450     0.5080 cp         1 KXA      -0.044000
      9 C09         -1.3050     0.9990     0.1880 cp         1 KXA       0.029000
     10 C10          0.0910     0.8470     0.1290 ca         1 KXA      -0.121300
     11 C11         -1.7790     2.3190    -0.0790 ca         1 KXA      -0.093300
     12 C12          3.3190    -0.9580     0.3260 ca         1 KXA      -0.082000
     13 C13          4.4240    -0.9620    -0.5660 ca         1 KXA       0.148100
     14 C14         -3.9080    -2.3130     1.1450 ca         1 KXA       0.129000
     15 C15         -2.5310    -1.1220    -0.4680 ca         1 KXA       0.132000
     16 C16          0.9350     1.8830    -0.1650 ca         1 KXA       0.291500
     17 C17         -0.8310     3.3480    -0.3810 ca         1 KXA       0.349300
     18 C18          2.3280     1.3450    -0.1140 c          1 KXA       0.483500
     19 C19          0.7920    -0.4670     0.4150 c5         1 KXA       0.159300
     20 C20         -1.2550     4.7780    -0.6880 c3         1 KXA      -0.146400
     21 C21          5.3830    -0.2130    -2.7230 c3         1 KXA       0.147900
     22 C22         -3.2770     2.6200    -0.0630 c3         1 KXA       0.192100
     23 N23          0.5120     3.1420    -0.4240 nb         1 KXA      -0.601000
     24 N24          2.2130    -0.0480     0.1550 n          1 KXA      -0.241400
     25 N25         -3.7410     3.0370     1.2760 n8         1 KXA      -0.997200
     26 O27          4.3150    -0.2740    -1.7620 os         1 KXA      -0.331100
     27 Cl1         -4.9650    -3.6620     1.5410 cl         1 KXA      -0.190000
     28 Cl2         -1.8980    -1.0090    -2.1090 cl         1 KXA      -0.185000
     29 H01          4.6390    -2.9520     2.7860 ha         1 KXA       0.119000
     30 H02          6.5240    -3.0520     1.1640 ha         1 KXA       0.113000
     31 H03         -2.5250     0.4680     2.5640 ha         1 KXA       0.144000
     32 H04          2.6370    -1.5890     2.2910 ha         1 KXA       0.124000
     33 H05          6.4130    -1.7860    -0.9460 ha         1 KXA       0.119000
     34 H06         -4.0180    -1.4440     3.1220 ha         1 KXA       0.137000
     35 H07         -3.6190    -2.9400    -0.9030 ha         1 KXA       0.146000
     36 H19          0.6350    -0.7900     1.4520 h1         1 KXA       0.069200
     37 H19A         0.4750    -1.2640    -0.2700 h1         1 KXA       0.069200
     38 H20         -1.8840     5.1850     0.1120 hc         1 KXA       0.053033
     39 H20A        -0.3930     5.4480    -0.7940 hc         1 KXA       0.053033
     40 H20B        -1.8220     4.8250    -1.6250 hc         1 KXA       0.053033
     41 H21          6.2820     0.2330    -2.2780 h1         1 KXA       0.043033
     42 H21A         5.6320    -1.2150    -3.0940 h1         1 KXA       0.043033
     43 H21B         5.0870     0.4020    -3.5810 h1         1 KXA       0.043033
     44 H22         -3.5220     3.4090    -0.7870 h1         1 KXA       0.043700
     45 H22A        -3.8390     1.7250    -0.3640 h1         1 KXA       0.043700
     46 HN25        -3.2980     3.9290     1.5250 hn         1 KXA       0.397000
     47 HN2A        -4.7410     3.2660     1.2280 hn         1 KXA       0.397000
     48 O26          3.3700     1.9870    -0.2270 o          1 KXA      -0.496000
@<TRIPOS>BOND
     1     1     2 ar  
     2     1     4 ar  
     3     1    29 1   
     4     2     5 ar  
     5     2    30 1   
     6     3     6 ar  
     7     3     8 ar  
     8     3    31 1   
     9     4    12 ar  
    10     4    32 1   
    11     5    13 ar  
    12     5    33 1   
    13     6    14 ar  
    14     6    34 1   
    15     7    14 ar  
    16     7    15 ar  
    17     7    35 1   
    18     8     9 1   
    19     8    15 ar  
    20     9    10 ar  
    21     9    11 ar  
    22    10    16 ar  
    23    10    19 1   
    24    11    17 ar  
    25    11    22 1   
    26    12    13 ar  
    27    12    24 1   
    28    13    26 1   
    29    14    27 1   
    30    15    28 1   
    31    16    18 1   
    32    16    23 ar  
    33    17    20 1   
    34    17    23 ar  
    35    18    24 1   
    36    18    48 2   
    37    19    24 1   
    38    19    36 1   
    39    19    37 1   
    40    20    38 1   
    41    20    39 1   
    42    20    40 1   
    43    21    26 1   
    44    21    41 1   
    45    21    42 1   
    46    21    43 1   
    47    22    25 1   
    48    22    44 1   
    49    22    45 1   
    50    25    46 1   
    51    25    47 1   
@<TRIPOS>SUBSTRUCTURE
     1 KXA         1 TEMP              0 ****  ****    0 ROOT
