@<TRIPOS>MOLECULE
KXB
   44    46     1     0     0
SMALL
bcc


@<TRIPOS>ATOM
      1 C01         -2.3230    -0.0290    -1.2740 ca         1 KXB      -0.106000
      2 C02         -3.4010     0.8400    -1.3190 ca         1 KXB      -0.122000
      3 C03         -2.8040     1.6600     0.8740 ca         1 KXB      -0.118000
      4 C04         -1.4730    -0.0790    -0.1730 cp         1 KXB      -0.039000
      5 C05         -0.3110    -0.9970    -0.1720 cp         1 KXB       0.009000
      6 C06          0.9490    -0.5210    -0.5050 ca         1 KXB      -0.194600
      7 C07         -0.4220    -2.3530     0.1230 ca         1 KXB      -0.159600
      8 C08         -3.6290     1.6770    -0.2390 ca         1 KXB       0.035400
      9 C09         -1.7320     0.7810     0.8890 ca         1 KXB       0.040400
     10 C10          2.0020    -1.4010    -0.5390 ca         1 KXB       0.359800
     11 C11          0.7290    -3.1700     0.0420 ca         1 KXB       0.439600
     12 C12          3.2350    -0.6620    -0.9200 c          1 KXB       0.624000
     13 C13          1.4270     0.8410    -0.8720 c5         1 KXB       0.151300
     14 C14          0.6390    -4.6360     0.3340 c3         1 KXB      -0.150400
     15 C15          4.8570     2.6860     1.8700 c3         1 KXB       0.120700
     16 C16         -1.7500    -2.9530     0.5040 c3         1 KXB       0.194100
     17 C18          3.9990     2.6310    -0.3010 c3         1 KXB       0.110400
     18 N19          1.9260    -2.6960    -0.2820 nb         1 KXB      -0.601000
     19 N20          2.8380     0.6170    -1.1200 n          1 KXB      -0.484800
     20 N21         -2.3450    -3.6360    -0.6360 n8         1 KXB      -0.883800
     21 O22          4.3600    -1.1120    -1.0440 o          1 KXB      -0.577500
     22 O23          4.6240     1.9080     0.7230 os         1 KXB      -0.389600
     23 CL1         -4.9680     2.7690    -0.2730 cl         1 KXB      -0.092400
     24 CL2         -0.7060     0.7520     2.2790 cl         1 KXB      -0.084400
     25 H01         -2.1300    -0.6770    -2.1190 ha         1 KXB       0.149000
     26 H02         -4.0480     0.8620    -2.1840 ha         1 KXB       0.155000
     27 H03         -2.9900     2.3160     1.7130 ha         1 KXB       0.166000
     28 H13          0.9270     1.2330    -1.7630 h1         1 KXB       0.062200
     29 H13A         1.2740     1.5620    -0.0640 h1         1 KXB       0.062200
     30 H14         -0.1530    -5.1010    -0.2520 hc         1 KXB       0.060033
     31 H14A         1.5840    -5.1250     0.1090 hc         1 KXB       0.060033
     32 H14B         0.4050    -4.8140     1.3860 hc         1 KXB       0.060033
     33 H15          5.3330     2.0510     2.6160 h1         1 KXB       0.028700
     34 H15A         5.5180     3.5360     1.6650 h1         1 KXB       0.028700
     35 H15B         3.9260     3.0810     2.2940 h1         1 KXB       0.028700
     36 H16         -1.5950    -3.6890     1.2950 h1         1 KXB       0.042700
     37 H16A        -2.3880    -2.1750     0.9380 h1         1 KXB       0.042700
     38 H17          3.2740     2.2830    -2.2770 h1         1 KXB       0.066200
     39 H17A         4.6510     1.2800    -1.8440 h1         1 KXB       0.066200
     40 H18          4.6310     3.4560    -0.6590 h1         1 KXB       0.022200
     41 H18A         3.0630     3.0880     0.0550 h1         1 KXB       0.022200
     42 HN21        -3.1610    -4.1500    -0.3260 hn         1 KXB       0.340800
     43 HN2A        -2.6860    -2.9550    -1.3030 hn         1 KXB       0.340800
     44 C17          3.7200     1.7020    -1.4670 c3         1 KXB       0.115000
@<TRIPOS>BOND
     1     1     2 ar  
     2     1     4 ar  
     3     1    25 1   
     4     2     8 ar  
     5     2    26 1   
     6     3     8 ar  
     7     3     9 ar  
     8     3    27 1   
     9     4     5 1   
    10     4     9 ar  
    11     5     6 ar  
    12     5     7 ar  
    13     6    10 ar  
    14     6    13 1   
    15     7    11 ar  
    16     7    16 1   
    17     8    23 1   
    18     9    24 1   
    19    10    12 1   
    20    10    18 ar  
    21    11    14 1   
    22    11    18 ar  
    23    12    19 1   
    24    12    21 2   
    25    13    19 1   
    26    13    28 1   
    27    13    29 1   
    28    14    30 1   
    29    14    31 1   
    30    14    32 1   
    31    15    22 1   
    32    15    33 1   
    33    15    34 1   
    34    15    35 1   
    35    16    20 1   
    36    16    36 1   
    37    16    37 1   
    38    17    22 1   
    39    17    40 1   
    40    17    41 1   
    41    17    44 1   
    42    19    44 1   
    43    20    42 1   
    44    20    43 1   
    45    38    44 1   
    46    39    44 1   
@<TRIPOS>SUBSTRUCTURE
     1 KXB         1 TEMP              0 ****  ****    0 ROOT
