@<TRIPOS>MOLECULE
KXB
   44    46     1     0     0
SMALL
No Charge or Current Charge


@<TRIPOS>ATOM
      1 C01         -2.1140     0.2150    -1.3970 ca         1 KXB      -0.088000
      2 C02         -3.1890     1.1210    -1.4030 ca         1 KXB      -0.104000
      3 C03         -2.9460     1.4250     0.9990 ca         1 KXB      -0.100000
      4 C04         -1.4430    -0.1030    -0.1930 cp         1 KXB      -0.039000
      5 C05         -0.2990    -1.0580    -0.2030 cp         1 KXB       0.009000
      6 C06          0.9980    -0.6480    -0.5520 ca         1 KXB      -0.129300
      7 C07         -0.4230    -2.4380     0.1400 ca         1 KXB      -0.094300
      8 C08         -3.6030     1.7230    -0.2050 ca         1 KXB       0.127000
      9 C09         -1.8720     0.5200     1.0070 ca         1 KXB       0.132000
     10 C10          2.0670    -1.5050    -0.5560 ca         1 KXB       0.294500
     11 C11          0.7420    -3.2690     0.1040 ca         1 KXB       0.374300
     12 C12          3.2660    -0.7040    -0.9560 c          1 KXB       0.481500
     13 C13          1.3330     0.7840    -0.9310 c5         1 KXB       0.151300
     14 C14          0.6940    -4.7500     0.4570 c3         1 KXB      -0.150400
     15 C15          4.8800     2.8330     1.8570 c3         1 KXB       0.143900
     16 C16         -1.7770    -3.0190     0.5420 c3         1 KXB       0.194100
     17 C18          3.9950     2.7170    -0.3910 c3         1 KXB       0.133600
     18 N19          1.9790    -2.8170    -0.2350 nb         1 KXB      -0.601000
     19 N20          2.8050     0.6170    -1.1670 n          1 KXB      -0.417800
     20 N21         -2.5140    -3.5380    -0.6260 n8         1 KXB      -0.994200
     21 O22          4.4210    -1.0960    -1.0860 o          1 KXB      -0.502000
     22 O23          4.6000     2.0140     0.7100 os         1 KXB      -0.436000
     23 Cl1         -4.9470     2.8580    -0.2120 cl         1 KXB      -0.184000
     24 Cl2         -1.0640     0.1850     2.5370 cl         1 KXB      -0.176000
     25 H01         -1.7950    -0.2470    -2.3290 ha         1 KXB       0.131000
     26 H02         -3.6990     1.3570    -2.3340 ha         1 KXB       0.137000
     27 H03         -3.2660     1.8970     1.9230 ha         1 KXB       0.148000
     28 H13          0.8040     1.1050    -1.8380 h1         1 KXB       0.062200
     29 H13A         1.1230     1.4840    -0.1110 h1         1 KXB       0.062200
     30 H14         -0.0740    -5.2680    -0.1280 hc         1 KXB       0.060033
     31 H14A         1.6490    -5.2510     0.2540 hc         1 KXB       0.060033
     32 H14B         0.4680    -4.8900     1.5200 hc         1 KXB       0.060033
     33 H15          5.3390     2.2320     2.6520 h1         1 KXB       0.028700
     34 H15A         5.5730     3.6440     1.5970 h1         1 KXB       0.028700
     35 H15B         3.9580     3.2780     2.2530 h1         1 KXB       0.028700
     36 H16         -1.6480    -3.8310     1.2710 h1         1 KXB       0.042700
     37 H16A        -2.3900    -2.2480     1.0290 h1         1 KXB       0.042700
     38 H17          3.2900     2.2610    -2.3830 h1         1 KXB       0.066200
     39 H17A         4.6840     1.3020    -1.8800 h1         1 KXB       0.066200
     40 H18          4.6610     3.5100    -0.7550 h1         1 KXB       0.022200
     41 H18A         3.0470     3.1780    -0.0840 h1         1 KXB       0.022200
     42 HN21        -3.4420    -3.8550    -0.3210 hn         1 KXB       0.396000
     43 HN2A        -2.7190    -2.7570    -1.2590 hn         1 KXB       0.396000
     44 C17          3.7270     1.7150    -1.5370 c3         1 KXB       0.115000
@<TRIPOS>BOND
     1     1     2 ar  
     2     1     4 ar  
     3     1    25 1   
     4     2     8 ar  
     5     2    26 1   
     6     3     8 ar  
     7     3     9 ar  
     8     3    27 1   
     9     4     5 1   
    10     4     9 ar  
    11     5     6 ar  
    12     5     7 ar  
    13     6    10 ar  
    14     6    13 1   
    15     7    11 ar  
    16     7    16 1   
    17     8    23 1   
    18     9    24 1   
    19    10    12 1   
    20    10    18 ar  
    21    11    14 1   
    22    11    18 ar  
    23    12    19 1   
    24    12    21 2   
    25    13    19 1   
    26    13    28 1   
    27    13    29 1   
    28    14    30 1   
    29    14    31 1   
    30    14    32 1   
    31    15    22 1   
    32    15    33 1   
    33    15    34 1   
    34    15    35 1   
    35    16    20 1   
    36    16    36 1   
    37    16    37 1   
    38    17    22 1   
    39    17    40 1   
    40    17    41 1   
    41    17    44 1   
    42    19    44 1   
    43    20    42 1   
    44    20    43 1   
    45    38    44 1   
    46    39    44 1   
@<TRIPOS>SUBSTRUCTURE
     1 KXB         1 TEMP              0 ****  ****    0 ROOT
