@<TRIPOS>MOLECULE
KXE
   44    46     1     0     0
SMALL
No Charge or Current Charge


@<TRIPOS>ATOM
      1 C1          42.1410    32.5340   -31.7440 c3         1 KXE       0.155300
      2 N2          46.5310    28.3510   -31.6450 nc         1 KXE      -0.522800
      3 C3          42.7300    34.6310   -30.4320 ca         1 KXE      -0.100000
      4 C4          42.7420    35.3810   -29.2420 ca         1 KXE      -0.109500
      5 C5          42.1760    34.8500   -28.0710 ca         1 KXE      -0.117000
      6 C6          41.5970    33.5700   -28.0900 ca         1 KXE      -0.109500
      7 C12         47.4510    29.9350   -35.2880 c          1 KXE       0.722000
      8 C13         45.2980    28.5740   -31.2300 cd         1 KXE       0.322500
      9 C14         44.5890    27.5330   -30.4640 ca         1 KXE      -0.071500
     10 C15         44.5950    26.1950   -30.9100 ca         1 KXE      -0.071000
     11 C16         43.9600    25.1900   -30.1590 ca         1 KXE      -0.108000
     12 C17         43.3310    25.5080   -28.9430 ca         1 KXE       0.111000
     13 C18         43.3490    26.8380   -28.4730 ca         1 KXE       0.115000
     14 Cl1         42.5920    27.2730   -26.9390 cl         1 KXE      -0.199000
     15 Cl          42.5460    24.2240   -28.0230 cl         1 KXE      -0.203000
     16 C19         43.9840    27.8390   -29.2270 ca         1 KXE      -0.072000
     17 N1          46.8620    29.5190   -32.2960 na         1 KXE       0.185800
     18 C10         48.2010    29.6790   -32.8960 c3         1 KXE       0.107600
     19 C11         48.3350    29.1280   -34.3360 c3         1 KXE      -0.238400
     20 O2          47.9090    30.9670   -35.7530 o          1 KXE      -0.731000
     21 O1          46.3200    29.5340   -35.5070 o          1 KXE      -0.731000
     22 C9          45.8450    30.4660   -32.2930 cc         1 KXE      -0.098000
     23 C8          44.8170    29.8490   -31.6200 cd         1 KXE      -0.299600
     24 C           43.4700    30.4300   -31.4040 c          1 KXE       0.652700
     25 O           42.5420    29.8390   -30.8770 o          1 KXE      -0.593100
     26 N           43.3470    31.7170   -31.8680 ns         1 KXE      -0.514900
     27 C2          42.1500    33.3480   -30.4570 ca         1 KXE      -0.085300
     28 C7          41.5840    32.8210   -29.2790 ca         1 KXE      -0.100000
     29 H1          42.0870    33.2110   -32.6070 h1         1 KXE       0.052700
     30 H2          41.2520    31.8900   -31.7740 h1         1 KXE       0.052700
     31 H3          43.1730    35.0480   -31.3340 ha         1 KXE       0.110500
     32 H4          43.1920    36.3710   -29.2280 ha         1 KXE       0.106000
     33 H5          42.1860    35.4300   -27.1510 ha         1 KXE       0.104000
     34 H6          41.1590    33.1580   -27.1830 ha         1 KXE       0.106000
     35 H7          45.0850    25.9360   -31.8470 ha         1 KXE       0.144000
     36 H8          43.9590    24.1640   -30.5170 ha         1 KXE       0.124000
     37 H9          44.0090    28.8560   -28.8460 ha         1 KXE       0.132000
     38 H10         48.9260    29.1670   -32.2510 h1         1 KXE       0.045700
     39 H11         48.4580    30.7460   -32.8900 h1         1 KXE       0.045700
     40 H12         48.0220    28.0770   -34.3010 hc         1 KXE       0.041200
     41 H13         49.3910    29.2660   -34.5940 hc         1 KXE       0.041200
     42 H15         45.9450    31.4300   -32.7770 h4         1 KXE       0.173000
     43 H16         44.1680    32.1320   -32.2850 hn         1 KXE       0.314500
     44 H17         41.1370    31.8290   -29.2850 ha         1 KXE       0.110500
@<TRIPOS>BOND
     1     1    26 1   
     2     1    27 1   
     3     1    29 1   
     4     1    30 1   
     5     2     8 2   
     6     2    17 1   
     7     3     4 ar  
     8     3    27 ar  
     9     3    31 1   
    10     4     5 ar  
    11     4    32 1   
    12     5     6 ar  
    13     5    33 1   
    14     6    28 ar  
    15     6    34 1   
    16     7    19 1   
    17     7    20 1   
    18     7    21 1   
    19     8     9 1   
    20     8    23 1   
    21     9    10 ar  
    22     9    16 ar  
    23    10    11 ar  
    24    10    35 1   
    25    11    12 ar  
    26    11    36 1   
    27    12    13 ar  
    28    12    15 1   
    29    13    14 1   
    30    13    16 ar  
    31    16    37 1   
    32    17    18 1   
    33    17    22 1   
    34    18    19 1   
    35    18    38 1   
    36    18    39 1   
    37    19    40 1   
    38    19    41 1   
    39    22    23 2   
    40    22    42 1   
    41    23    24 1   
    42    24    25 2   
    43    24    26 1   
    44    26    43 1   
    45    27    28 ar  
    46    28    44 1   
@<TRIPOS>SUBSTRUCTURE
     1 KXE         1 TEMP              0 ****  ****    0 ROOT
