@<TRIPOS>MOLECULE
KXE
   44    46     1     0     0
SMALL
abcg2


@<TRIPOS>ATOM
      1 C1          42.7770    33.2290   -31.6130 c3         1 KXE       0.155300
      2 N2          46.6570    28.6880   -31.9460 nc         1 KXE      -0.522800
      3 C3          42.9640    32.9010   -29.1010 ca         1 KXE      -0.100000
      4 C4          42.4030    32.9130   -27.8310 ca         1 KXE      -0.109500
      5 C5          41.0660    33.2440   -27.6580 ca         1 KXE      -0.117000
      6 C6          40.2910    33.5590   -28.7670 ca         1 KXE      -0.109500
      7 C12         46.9930    28.6060   -35.7590 c          1 KXE       0.722000
      8 C13         45.5120    29.0790   -31.4140 cd         1 KXE       0.322500
      9 C14         44.8800    28.2710   -30.3670 ca         1 KXE      -0.071500
     10 C15         44.9170    26.8790   -30.4310 ca         1 KXE      -0.071000
     11 C16         44.3390    26.1100   -29.4360 ca         1 KXE      -0.108000
     12 C17         43.7140    26.7190   -28.3590 ca         1 KXE       0.111000
     13 C18         43.6810    28.1070   -28.2810 ca         1 KXE       0.115000
     14 CL1         42.9300    28.8940   -26.9450 cl         1 KXE      -0.199000
     15 CL          42.9910    25.7490   -27.1340 cl         1 KXE      -0.203000
     16 C19         44.2620    28.8760   -29.2760 ca         1 KXE      -0.072000
     17 N1          46.9900    29.6220   -32.8280 na         1 KXE       0.185800
     18 C10         48.1850    29.4580   -33.6380 c3         1 KXE       0.107600
     19 C11         48.0400    28.3440   -34.6550 c3         1 KXE      -0.238400
     20 O2          46.6700    29.7940   -35.9610 o          1 KXE      -0.731000
     21 O1          46.5870    27.6020   -36.3730 o          1 KXE      -0.731000
     22 C9          46.0980    30.6150   -32.8810 cc         1 KXE      -0.098000
     23 C8          45.1050    30.3130   -31.9690 cd         1 KXE      -0.299600
     24 C           43.8380    31.0380   -31.7590 c          1 KXE       0.652700
     25 O           42.7790    30.4530   -31.5840 o          1 KXE      -0.593100
     26 N           43.9290    32.3820   -31.7940 ns         1 KXE      -0.514900
     27 C2          42.1930    33.2070   -30.2180 ca         1 KXE      -0.085300
     28 C7          40.8520    33.5350   -30.0370 ca         1 KXE      -0.100000
     29 H1          43.0890    34.2450   -31.8610 h1         1 KXE       0.052700
     30 H2          42.0010    32.9620   -32.3340 h1         1 KXE       0.052700
     31 H3          44.0090    32.6410   -29.2180 ha         1 KXE       0.110500
     32 H4          43.0140    32.6640   -26.9730 ha         1 KXE       0.106000
     33 H5          40.6290    33.2530   -26.6670 ha         1 KXE       0.104000
     34 H6          39.2460    33.8130   -28.6460 ha         1 KXE       0.106000
     35 H7          45.3890    26.3890   -31.2710 ha         1 KXE       0.144000
     36 H8          44.3660    25.0310   -29.5000 ha         1 KXE       0.124000
     37 H9          44.2500    29.9530   -29.1770 ha         1 KXE       0.132000
     38 H10         49.0170    29.2660   -32.9600 h1         1 KXE       0.045700
     39 H11         48.3700    30.4090   -34.1310 h1         1 KXE       0.045700
     40 H12         47.8270    27.3980   -34.1510 hc         1 KXE       0.041200
     41 H13         49.0150    28.2090   -35.1360 hc         1 KXE       0.041200
     42 H15         46.2020    31.4370   -33.5700 h4         1 KXE       0.173000
     43 H16         44.8380    32.8120   -31.8290 hn         1 KXE       0.314500
     44 H17         40.2370    33.7700   -30.8980 ha         1 KXE       0.110500
@<TRIPOS>BOND
     1     1    26 1   
     2     1    27 1   
     3     1    29 1   
     4     1    30 1   
     5     2     8 2   
     6     2    17 1   
     7     3     4 ar  
     8     3    27 ar  
     9     3    31 1   
    10     4     5 ar  
    11     4    32 1   
    12     5     6 ar  
    13     5    33 1   
    14     6    28 ar  
    15     6    34 1   
    16     7    19 1   
    17     7    20 1   
    18     7    21 1   
    19     8     9 1   
    20     8    23 1   
    21     9    10 ar  
    22     9    16 ar  
    23    10    11 ar  
    24    10    35 1   
    25    11    12 ar  
    26    11    36 1   
    27    12    13 ar  
    28    12    15 1   
    29    13    14 1   
    30    13    16 ar  
    31    16    37 1   
    32    17    18 1   
    33    17    22 1   
    34    18    19 1   
    35    18    38 1   
    36    18    39 1   
    37    19    40 1   
    38    19    41 1   
    39    22    23 2   
    40    22    42 1   
    41    23    24 1   
    42    24    25 2   
    43    24    26 1   
    44    26    43 1   
    45    27    28 ar  
    46    28    44 1   
@<TRIPOS>SUBSTRUCTURE
     1 KXE         1 TEMP              0 ****  ****    0 ROOT
