@<TRIPOS>MOLECULE
KXF
   32    33     1     0     0
SMALL
abcg2


@<TRIPOS>ATOM
      1 N1           8.4090    -0.4980    20.5590 ns         1 KXF      -0.154000
      2 C4           8.0640     0.4410    18.3140 ca         1 KXF       0.325900
      3 C5           7.6280     0.1990    19.6200 ca         1 KXF      -0.076000
      4 C6           9.7630    -0.6600    20.5830 c          1 KXF       0.601100
      5 C7          10.2540    -1.5390    21.7310 c3         1 KXF      -0.108100
      6 C8          11.6070    -1.1270    22.2450 ca         1 KXF      -0.037300
      7 C10         14.0100    -1.3360    22.2650 ca         1 KXF      -0.074000
      8 C13         11.7050    -0.0930    23.1760 ca         1 KXF      -0.191000
      9 O           10.5210    -0.1800    19.7520 o          1 KXF      -0.563100
     10 N            7.3290     1.0850    17.4060 nb         1 KXF      -0.644000
     11 C3           6.1170     1.5100    17.7700 ca         1 KXF       0.312900
     12 C2           5.5990     1.3060    19.0410 ca         1 KXF      -0.141000
     13 C1           6.3500     0.6400    20.0030 ca         1 KXF      -0.090300
     14 C            5.8160     0.4090    21.3850 c3         1 KXF      -0.051800
     15 C12         12.9490     0.3160    23.6460 ca         1 KXF       0.135100
     16 O1          13.0870     1.3220    24.5600 oh         1 KXF      -0.538100
     17 C11         14.1110    -0.3060    23.1910 ca         1 KXF      -0.132000
     18 C9          12.7680    -1.7490    21.7910 ca         1 KXF      -0.121000
     19 H1           7.9090    -0.8870    21.3440 hn         1 KXF       0.149000
     20 H2           9.0400     0.1010    18.0040 h4         1 KXF       0.049100
     21 H3           9.5220    -1.5400    22.5390 hc         1 KXF       0.065700
     22 H4          10.2980    -2.5580    21.3350 hc         1 KXF       0.065700
     23 H5          14.9110    -1.8230    21.9130 ha         1 KXF       0.118000
     24 H6          10.8080     0.3980    23.5400 ha         1 KXF       0.108000
     25 H7           5.5350     2.0310    17.0170 h4         1 KXF       0.022100
     26 H8           4.6090     1.6680    19.2870 ha         1 KXF       0.121000
     27 H9           5.7030    -0.6590    21.5940 hc         1 KXF       0.045700
     28 H10          6.4890     0.8190    22.1420 hc         1 KXF       0.045700
     29 H11          4.8400     0.8780    21.5020 hc         1 KXF       0.045700
     30 H12         12.2180     1.6720    24.7980 ho         1 KXF       0.461000
     31 H13         15.0720     0.0190    23.5670 ha         1 KXF       0.131000
     32 H14         12.6990    -2.5550    21.0720 ha         1 KXF       0.118000
@<TRIPOS>BOND
     1     1     3 1   
     2     1     4 1   
     3     1    19 1   
     4     2     3 ar  
     5     2    10 ar  
     6     2    20 1   
     7     3    13 ar  
     8     4     5 1   
     9     4     9 2   
    10     5     6 1   
    11     5    21 1   
    12     5    22 1   
    13     6     8 ar  
    14     6    18 ar  
    15     7    17 ar  
    16     7    18 ar  
    17     7    23 1   
    18     8    15 ar  
    19     8    24 1   
    20    10    11 ar  
    21    11    12 ar  
    22    11    25 1   
    23    12    13 ar  
    24    12    26 1   
    25    13    14 1   
    26    14    27 1   
    27    14    28 1   
    28    14    29 1   
    29    15    16 1   
    30    15    17 ar  
    31    16    30 1   
    32    17    31 1   
    33    18    32 1   
@<TRIPOS>SUBSTRUCTURE
     1 KXF         1 TEMP              0 ****  ****    0 ROOT
