@<TRIPOS>MOLECULE
KXF
   32    33     1     0     0
SMALL
No Charge or Current Charge


@<TRIPOS>ATOM
      1 N1           8.6330    -0.6850    20.4810 ns         1 KXF      -0.154000
      2 C4           8.0140     0.1770    18.2150 ca         1 KXF       0.325900
      3 C5           7.8160     0.1040    19.6180 ca         1 KXF      -0.076000
      4 C6           9.7900    -1.4200    20.2520 c          1 KXF       0.601100
      5 C7          10.3410    -2.1300    21.4940 c3         1 KXF      -0.108100
      6 C8          11.4860    -1.3290    22.1020 ca         1 KXF      -0.037300
      7 C10         13.8680    -0.8160    22.2450 ca         1 KXF      -0.074000
      8 C13         11.2250    -0.3470    23.0790 ca         1 KXF      -0.191000
      9 O           10.3520    -1.4930    19.1660 o          1 KXF      -0.563100
     10 N            7.2390     0.9210    17.3890 nb         1 KXF      -0.644000
     11 C3           6.2280     1.6270    17.9400 ca         1 KXF       0.312900
     12 C2           5.9520     1.6160    19.3160 ca         1 KXF      -0.141000
     13 C1           6.7510     0.8450    20.1800 ca         1 KXF      -0.090300
     14 C            6.4610     0.8270    21.6780 c3         1 KXF      -0.051800
     15 C12         12.2810     0.3940    23.6340 ca         1 KXF       0.135100
     16 O1          12.0280     1.3430    24.5790 oh         1 KXF      -0.538100
     17 C11         13.6010     0.1610    23.2190 ca         1 KXF      -0.132000
     18 C9          12.8120    -1.5580    21.6880 ca         1 KXF      -0.121000
     19 H1           8.3100    -0.7110    21.4400 hn         1 KXF       0.149000
     20 H2           8.8060    -0.3780    17.7170 h4         1 KXF       0.049100
     21 H3           9.5470    -2.2380    22.2420 hc         1 KXF       0.065700
     22 H4          10.7010    -3.1230    21.2020 hc         1 KXF       0.065700
     23 H5          14.8910    -0.9970    21.9210 ha         1 KXF       0.118000
     24 H6          10.2030    -0.1640    23.4020 ha         1 KXF       0.108000
     25 H7           5.6200     2.2190    17.2560 h4         1 KXF       0.022100
     26 H8           5.1230     2.2050    19.6980 ha         1 KXF       0.121000
     27 H9           6.2160    -0.1860    22.0210 hc         1 KXF       0.045700
     28 H10          7.3260     1.1800    22.2530 hc         1 KXF       0.045700
     29 H11          5.6130     1.4730    21.9350 hc         1 KXF       0.045700
     30 H12         11.0620     1.3620    24.7470 ho         1 KXF       0.461000
     31 H13         14.4160     0.7360    23.6510 ha         1 KXF       0.131000
     32 H14         13.0270    -2.3110    20.9320 ha         1 KXF       0.118000
@<TRIPOS>BOND
     1     1     3 1   
     2     1     4 1   
     3     1    19 1   
     4     2     3 ar  
     5     2    10 ar  
     6     2    20 1   
     7     3    13 ar  
     8     4     5 1   
     9     4     9 2   
    10     5     6 1   
    11     5    21 1   
    12     5    22 1   
    13     6     8 ar  
    14     6    18 ar  
    15     7    17 ar  
    16     7    18 ar  
    17     7    23 1   
    18     8    15 ar  
    19     8    24 1   
    20    10    11 ar  
    21    11    12 ar  
    22    11    25 1   
    23    12    13 ar  
    24    12    26 1   
    25    13    14 1   
    26    14    27 1   
    27    14    28 1   
    28    14    29 1   
    29    15    16 1   
    30    15    17 ar  
    31    16    30 1   
    32    17    31 1   
    33    18    32 1   
@<TRIPOS>SUBSTRUCTURE
     1 KXF         1 TEMP              0 ****  ****    0 ROOT
