@<TRIPOS>MOLECULE
KXG
   57    60     1     0     0
SMALL
abcg2


@<TRIPOS>ATOM
      1 C1B         18.6270   -22.1340    -7.4350 c5         1 KXG       0.309300
      2 C1D         24.3180   -29.7850    -6.1580 c5         1 KXG       0.358300
      3 C2A         15.4010   -19.7940    -9.1630 ca         1 KXG       0.154900
      4 C2B         18.5270   -23.2740    -6.4230 c5         1 KXG       0.131300
      5 C2D         23.8440   -31.0160    -6.9230 c5         1 KXG       0.143300
      6 C3B         19.8850   -23.1790    -5.7290 c5         1 KXG       0.104300
      7 C3D         23.9320   -30.5010    -8.3570 c5         1 KXG       0.097300
      8 C4A         16.8050   -21.4770    -9.0260 ca         1 KXG       0.127500
      9 C4B         20.7860   -22.8350    -6.9180 c5         1 KXG       0.110300
     10 C4D         25.2110   -29.6630    -8.2980 c5         1 KXG       0.112300
     11 C5A         16.3060   -22.0630   -10.1790 ca         1 KXG      -0.090600
     12 C5B         21.3490   -24.0480    -7.6460 c3         1 KXG       0.209600
     13 C5D         25.3640   -28.6190    -9.3850 c3         1 KXG       0.242600
     14 C6A         15.2510   -21.3860   -10.8160 ca         1 KXG       0.434900
     15 C8A         17.8460   -23.3390    -9.5070 cc         1 KXG       0.445700
     16 N1A         14.8220   -20.2410   -10.2740 nb         1 KXG      -0.323000
     17 N3A         16.3880   -20.3390    -8.4740 nb         1 KXG      -0.197000
     18 N6A         14.6570   -21.8470   -11.9200 nv         1 KXG      -1.077900
     19 N7A         16.9740   -23.2260   -10.4630 nd         1 KXG      -0.583100
     20 N9A         17.7950   -22.3150    -8.5980 na         1 KXG      -0.271300
     21 O1A         20.8930   -26.6610    -6.1920 o          1 KXG      -0.850500
     22 O1N         25.0600   -25.8500    -8.2930 o          1 KXG      -0.843500
     23 O2A         23.3700   -26.4000    -5.4050 o          1 KXG      -0.850500
     24 O2B         17.3930   -23.0930    -5.6360 oh         1 KXG      -0.705000
     25 O2N         23.1140   -25.6560   -10.0210 o          1 KXG      -0.843500
     26 O3          22.7420   -26.9330    -7.8580 os         1 KXG      -0.724800
     27 O3B         19.8220   -22.1390    -4.7870 oh         1 KXG      -0.728000
     28 O4B         19.9710   -22.0780    -7.8190 os         1 KXG      -0.461000
     29 O4D         25.1710   -29.0620    -7.0150 os         1 KXG      -0.391000
     30 O5B         22.3460   -24.6280    -6.8330 os         1 KXG      -0.604400
     31 O5D         24.1970   -27.8760    -9.6450 os         1 KXG      -0.608400
     32 PA          22.3050   -26.2260    -6.4390 p5         1 KXG       1.465800
     33 PN          23.8520   -26.4190    -8.9660 p5         1 KXG       1.466800
     34 S1D         25.1510   -30.2710    -4.6160 sh         1 KXG      -0.525800
     35 H1B         18.3020   -21.1940    -6.9750 h2         1 KXG       0.104700
     36 H1N         23.4710   -29.1570    -5.8800 h2         1 KXG       0.118700
     37 H2A         15.0080   -18.8590    -8.7760 h5         1 KXG       0.029100
     38 H2B         18.4980   -24.2330    -6.9590 h1         1 KXG       0.072700
     39 H2D         22.8200   -31.2790    -6.6350 h1         1 KXG       0.050700
     40 H3B         20.1750   -24.1300    -5.2690 h1         1 KXG       0.106700
     41 H3D         23.0760   -29.8370    -8.5260 h1         1 KXG       0.101700
     42 H4B         21.6230   -22.2040    -6.5980 h1         1 KXG       0.082700
     43 H4D         26.0820   -30.3310    -8.3790 h1         1 KXG       0.030700
     44 H52A        20.5500   -24.7570    -7.8840 h1         1 KXG       0.051700
     45 H51A        21.7930   -23.7320    -8.5930 h1         1 KXG       0.051700
     46 H51N        26.2120   -27.9690    -9.1470 h1         1 KXG       0.023700
     47 H52N        25.6210   -29.1480   -10.3080 h1         1 KXG       0.023700
     48 H8A         18.5580   -24.1460    -9.4110 h5         1 KXG       0.097800
     49 H61A        13.9680   -21.2850   -12.3890 hn         1 KXG       0.495000
     50 H62A        15.0190   -22.6510   -12.4020 hn         1 KXG       0.495000
     51 HO2A        17.2490   -23.8850    -5.1080 ho         1 KXG       0.512000
     52 H2          24.4860   -32.8140    -7.2550 ho         1 KXG       0.497000
     53 HO3A        20.6930   -22.0380    -4.3900 ho         1 KXG       0.506000
     54 H1S         25.0300   -29.0810    -4.0160 hs         1 KXG       0.250800
     55 O2D         24.7350   -32.0750    -6.6890 oh         1 KXG      -0.709000
     56 O3D         23.9640   -31.5550    -9.2750 oh         1 KXG      -0.745000
     57 HO3N        23.7420   -31.2170   -10.1470 ho         1 KXG       0.515000
@<TRIPOS>BOND
     1     1     4 1   
     2     1    20 1   
     3     1    28 1   
     4     1    35 1   
     5     2     5 1   
     6     2    29 1   
     7     2    34 1   
     8     2    36 1   
     9     3    16 ar  
    10     3    17 ar  
    11     3    37 1   
    12     4     6 1   
    13     4    24 1   
    14     4    38 1   
    15     5     7 1   
    16     5    39 1   
    17     5    55 1   
    18     6     9 1   
    19     6    27 1   
    20     6    40 1   
    21     7    10 1   
    22     7    41 1   
    23     7    56 1   
    24     8    11 ar  
    25     8    17 ar  
    26     8    20 1   
    27     9    12 1   
    28     9    28 1   
    29     9    42 1   
    30    10    13 1   
    31    10    29 1   
    32    10    43 1   
    33    11    14 ar  
    34    11    19 1   
    35    12    30 1   
    36    12    44 1   
    37    12    45 1   
    38    13    31 1   
    39    13    46 1   
    40    13    47 1   
    41    14    16 ar  
    42    14    18 1   
    43    15    19 2   
    44    15    20 1   
    45    15    48 1   
    46    18    49 1   
    47    18    50 1   
    48    21    32 1   
    49    22    33 1   
    50    23    32 1   
    51    24    51 1   
    52    25    33 1   
    53    26    32 1   
    54    26    33 1   
    55    27    53 1   
    56    30    32 1   
    57    31    33 1   
    58    34    54 1   
    59    52    55 1   
    60    56    57 1   
@<TRIPOS>SUBSTRUCTURE
     1 KXG         1 TEMP              0 ****  ****    0 ROOT
