@<TRIPOS>MOLECULE
KXG
   57    60     1     0     0
SMALL
No Charge or Current Charge


@<TRIPOS>ATOM
      1 C1B         18.5630   -23.8870    -7.8760 c5         1 KXG       0.309300
      2 C1D         23.2170   -28.3340    -5.7180 c5         1 KXG       0.358300
      3 C2A         16.8900   -19.8660    -8.9130 ca         1 KXG       0.154900
      4 C2B         18.7960   -25.4200    -7.7030 c5         1 KXG       0.131300
      5 C2D         22.1530   -29.0110    -6.6620 c5         1 KXG       0.143300
      6 C3B         20.3110   -25.4520    -7.3270 c5         1 KXG       0.104300
      7 C3D         22.8840   -28.8400    -8.0240 c5         1 KXG       0.097300
      8 C4A         16.9810   -22.1500    -8.8070 ca         1 KXG       0.127500
      9 C4B         20.8500   -24.1040    -7.9390 c5         1 KXG       0.110300
     10 C4D         24.3460   -29.1980    -7.5920 c5         1 KXG       0.112300
     11 C5A         15.7750   -22.2280    -9.4580 ca         1 KXG      -0.090600
     12 C5B         22.0840   -24.2320    -8.8810 c3         1 KXG       0.209600
     13 C5D         25.5030   -28.7680    -8.5460 c3         1 KXG       0.242600
     14 C6A         15.1420   -21.0230    -9.8310 ca         1 KXG       0.434900
     15 C8A         16.3510   -24.2710    -9.0880 cc         1 KXG       0.445700
     16 N1A         15.7010   -19.8320    -9.5630 nb         1 KXG      -0.323000
     17 N3A         17.5660   -20.9700    -8.5150 nb         1 KXG      -0.197000
     18 N6A         13.9490   -20.9870   -10.4830 nv         1 KXG      -1.077900
     19 N7A         15.3590   -23.5500    -9.6500 nd         1 KXG      -0.583100
     20 N9A         17.3560   -23.4430    -8.5730 na         1 KXG      -0.271300
     21 O1A         22.9220   -24.7280    -5.8670 o          1 KXG      -0.850500
     22 O1N         26.7580   -26.3380    -7.3160 o          1 KXG      -0.843500
     23 O2A         25.1290   -23.8300    -6.4240 o          1 KXG      -0.850500
     24 O2B         18.0330   -26.0310    -6.6570 oh         1 KXG      -0.705000
     25 O2N         25.9530   -25.0240    -9.2650 o          1 KXG      -0.843500
     26 O3          24.2310   -25.9520    -7.6010 os         1 KXG      -0.724800
     27 O3B         20.4750   -25.4760    -5.8970 oh         1 KXG      -0.728000
     28 O4B         19.7260   -23.5140    -8.6300 os         1 KXG      -0.461000
     29 O4D         24.5150   -28.6770    -6.2510 os         1 KXG      -0.391000
     30 O5B         23.3000   -23.8040    -8.2290 os         1 KXG      -0.604400
     31 O5D         25.3190   -27.4510    -9.1040 os         1 KXG      -0.608400
     32 PA          23.9350   -24.5540    -6.9470 p5         1 KXG       1.465800
     33 PN          25.6420   -26.1000    -8.2790 p5         1 KXG       1.466800
     34 S1D         23.2640   -28.8570    -3.9310 sh         1 KXG      -0.525800
     35 H1B         18.5670   -23.3830    -6.9000 h2         1 KXG       0.104700
     36 H1N         23.0890   -27.2450    -5.7450 h2         1 KXG       0.118700
     37 H2A         17.3510   -18.9050    -8.6880 h5         1 KXG       0.029100
     38 H2B         18.6340   -25.9370    -8.6590 h1         1 KXG       0.072700
     39 H2D         21.2060   -28.4550    -6.6450 h1         1 KXG       0.050700
     40 H3B         20.7990   -26.3230    -7.7900 h1         1 KXG       0.106700
     41 H3D         22.8140   -27.7970    -8.3650 h1         1 KXG       0.101700
     42 H4B         21.1140   -23.4030    -7.1360 h1         1 KXG       0.082700
     43 H4D         24.4270   -30.2890    -7.4990 h1         1 KXG       0.030700
     44 H52A        22.1760   -25.2670    -9.2360 h1         1 KXG       0.051700
     45 H51A        21.9100   -23.6050    -9.7650 h1         1 KXG       0.051700
     46 H51N        26.4580   -28.8430    -8.0110 h1         1 KXG       0.023700
     47 H52N        25.5450   -29.4960    -9.3660 h1         1 KXG       0.023700
     48 H8A         16.3910   -25.3530    -9.0240 h5         1 KXG       0.097800
     49 H61A        13.6970   -20.1310   -10.9700 hn         1 KXG       0.495000
     50 H62A        13.6160   -21.8600   -10.8850 hn         1 KXG       0.495000
     51 HO2A        18.6920   -26.0380    -5.9120 ho         1 KXG       0.512000
     52 H2          21.9020   -30.7730    -7.3550 ho         1 KXG       0.497000
     53 HO3A        21.4340   -25.1810    -5.7420 ho         1 KXG       0.506000
     54 H1S         24.3790   -28.1390    -3.6480 hs         1 KXG       0.250800
     55 O2D         21.9100   -30.4110    -6.4340 oh         1 KXG      -0.709000
     56 O3D         22.3420   -29.7390    -9.0160 oh         1 KXG      -0.745000
     57 HO3N        22.7220   -29.4780    -9.8900 ho         1 KXG       0.515000
@<TRIPOS>BOND
     1     1     4 1   
     2     1    20 1   
     3     1    28 1   
     4     1    35 1   
     5     2     5 1   
     6     2    29 1   
     7     2    34 1   
     8     2    36 1   
     9     3    16 ar  
    10     3    17 ar  
    11     3    37 1   
    12     4     6 1   
    13     4    24 1   
    14     4    38 1   
    15     5     7 1   
    16     5    39 1   
    17     5    55 1   
    18     6     9 1   
    19     6    27 1   
    20     6    40 1   
    21     7    10 1   
    22     7    41 1   
    23     7    56 1   
    24     8    11 ar  
    25     8    17 ar  
    26     8    20 1   
    27     9    12 1   
    28     9    28 1   
    29     9    42 1   
    30    10    13 1   
    31    10    29 1   
    32    10    43 1   
    33    11    14 ar  
    34    11    19 1   
    35    12    30 1   
    36    12    44 1   
    37    12    45 1   
    38    13    31 1   
    39    13    46 1   
    40    13    47 1   
    41    14    16 ar  
    42    14    18 1   
    43    15    19 2   
    44    15    20 1   
    45    15    48 1   
    46    18    49 1   
    47    18    50 1   
    48    21    32 1   
    49    22    33 1   
    50    23    32 1   
    51    24    51 1   
    52    25    33 1   
    53    26    32 1   
    54    26    33 1   
    55    27    53 1   
    56    30    32 1   
    57    31    33 1   
    58    34    54 1   
    59    52    55 1   
    60    56    57 1   
@<TRIPOS>SUBSTRUCTURE
     1 KXG         1 TEMP              0 ****  ****    0 ROOT
