@<TRIPOS>MOLECULE
KXH
   42    43     1     0     0
SMALL
bcc


@<TRIPOS>ATOM
      1 O1          43.0900    30.7010   -33.8280 o          1 KXH      -0.551000
      2 N           46.5960    28.5620   -33.0600 na         1 KXH       0.120400
      3 C15         44.3370    26.3290   -30.3230 ca         1 KXH      -0.091000
      4 C14         43.6820    25.7900   -29.2290 ca         1 KXH      -0.123000
      5 O           42.2370    29.2130   -32.3840 os         1 KXH      -0.415900
      6 C13         42.9070    26.6000   -28.4140 ca         1 KXH       0.031400
      7 C12         42.8020    27.9580   -28.6970 ca         1 KXH       0.018400
      8 C11         43.4620    28.4960   -29.7880 ca         1 KXH      -0.080000
      9 C10         44.2240    27.6840   -30.6210 ca         1 KXH      -0.101500
     10 C9          44.9440    28.2480   -31.7700 cc         1 KXH       0.418800
     11 C8          49.7790    31.4270   -31.7890 c3         1 KXH       0.151800
     12 C7          48.7560    30.7060   -32.6540 c3         1 KXH      -0.082400
     13 C1          40.9190    29.7760   -32.4690 c3         1 KXH       0.143400
     14 C2          43.2280    29.7850   -33.0510 c          1 KXH       0.695700
     15 C3          44.5190    29.1610   -32.7690 cc         1 KXH      -0.323900
     16 C4          45.6350    29.3320   -33.5680 cd         1 KXH      -0.065300
     17 C6          48.9480    29.1960   -32.6300 c3         1 KXH      -0.096400
     18 CL          41.8530    28.9930   -27.6980 cl         1 KXH      -0.086400
     19 N2          46.2030    27.9080   -31.9700 nd         1 KXH      -0.525800
     20 N1          49.5870    32.8690   -31.8450 n8         1 KXH      -0.882800
     21 H1          44.9310    25.6820   -30.9550 ha         1 KXH       0.148000
     22 H2          43.7690    24.7340   -29.0100 ha         1 KXH       0.150000
     23 H3          43.3900    29.5590   -29.9710 ha         1 KXH       0.156000
     24 H4          49.6540    31.1080   -30.7510 h1         1 KXH       0.027700
     25 H5          50.7870    31.1070   -32.0900 h1         1 KXH       0.027700
     26 H6          48.8380    31.0620   -33.6870 hc         1 KXH       0.050700
     27 H7          47.7530    30.9740   -32.3090 hc         1 KXH       0.050700
     28 H8          39.7050    31.2640   -31.5330 hc         1 KXH       0.048033
     29 H9          40.9470    30.6070   -30.4710 hc         1 KXH       0.048033
     30 H10         41.3790    31.7670   -31.7380 hc         1 KXH       0.048033
     31 H11         40.7050    30.0900   -33.4910 h1         1 KXH       0.059700
     32 H12         40.2530    28.9520   -32.2230 h1         1 KXH       0.059700
     33 H13         45.7810    29.9260   -34.4560 h4         1 KXH       0.190000
     34 H14         48.2130    27.3770   -33.5400 h1         1 KXH       0.066200
     35 H15         48.0030    28.8090   -34.5390 h1         1 KXH       0.066200
     36 H16         48.8760    28.8190   -31.6060 hc         1 KXH       0.059700
     37 H17         49.9530    28.9470   -32.9800 hc         1 KXH       0.059700
     38 H18         50.2490    33.3200   -31.2260 hn         1 KXH       0.337800
     39 H19         49.8170    33.2010   -32.7740 hn         1 KXH       0.337800
     40 C5          47.9690    28.4380   -33.5140 c3         1 KXH       0.059300
     41 CL1         42.0870    25.9170   -27.0640 cl         1 KXH      -0.083400
     42 C           40.7390    30.9200   -31.4950 c3         1 KXH      -0.124100
@<TRIPOS>BOND
     1     1    14 2   
     2     2    16 1   
     3     2    19 1   
     4     2    40 1   
     5     3     4 ar  
     6     3     9 ar  
     7     3    21 1   
     8     4     6 ar  
     9     4    22 1   
    10     5    13 1   
    11     5    14 1   
    12     6     7 ar  
    13     6    41 1   
    14     7     8 ar  
    15     7    18 1   
    16     8     9 ar  
    17     8    23 1   
    18     9    10 1   
    19    10    15 1   
    20    10    19 2   
    21    11    12 1   
    22    11    20 1   
    23    11    24 1   
    24    11    25 1   
    25    12    17 1   
    26    12    26 1   
    27    12    27 1   
    28    13    31 1   
    29    13    32 1   
    30    13    42 1   
    31    14    15 1   
    32    15    16 2   
    33    16    33 1   
    34    17    36 1   
    35    17    37 1   
    36    17    40 1   
    37    20    38 1   
    38    20    39 1   
    39    28    42 1   
    40    29    42 1   
    41    30    42 1   
    42    34    40 1   
    43    35    40 1   
@<TRIPOS>SUBSTRUCTURE
     1 KXH         1 TEMP              0 ****  ****    0 ROOT
