@<TRIPOS>MOLECULE
KXH
   42    43     1     0     0
SMALL
No Charge or Current Charge


@<TRIPOS>ATOM
      1 O1          43.0570    30.8180   -33.6560 o          1 KXH      -0.502000
      2 N           46.5790    28.5950   -33.0630 na         1 KXH       0.141800
      3 C15         44.4140    26.3160   -30.2150 ca         1 KXH      -0.073000
      4 C14         43.7700    25.8090   -29.0730 ca         1 KXH      -0.105000
      5 O           42.1410    29.1720   -32.3750 os         1 KXH      -0.439100
      6 C13         42.8770    26.6140   -28.3500 ca         1 KXH       0.123000
      7 C12         42.6500    27.9410   -28.7590 ca         1 KXH       0.110000
      8 C11         43.2960    28.4450   -29.9010 ca         1 KXH      -0.062000
      9 C10         44.1510    27.6270   -30.6760 ca         1 KXH      -0.101500
     10 C9          44.8860    28.1570   -31.8430 cc         1 KXH       0.353500
     11 C8          49.9640    31.3870   -31.8020 c3         1 KXH       0.151800
     12 C7          48.8520    30.7140   -32.6320 c3         1 KXH      -0.082400
     13 C1          40.8050    29.6910   -32.5260 c3         1 KXH       0.166600
     14 C2          43.2000    29.8590   -32.9090 c          1 KXH       0.646700
     15 C3          44.5150    29.2140   -32.7120 cc         1 KXH      -0.258600
     16 C4          45.6110    29.5090   -33.4710 cd         1 KXH      -0.098000
     17 C6          49.0200    29.1780   -32.7260 c3         1 KXH      -0.096400
     18 Cl          41.5780    29.0050   -27.8450 cl         1 KXH      -0.178000
     19 N2          46.1300    27.7600   -32.0540 nd         1 KXH      -0.525800
     20 N1          49.7770    32.8470   -31.7330 n8         1 KXH      -0.993200
     21 H1          45.1050    25.6740   -30.7580 ha         1 KXH       0.130000
     22 H2          43.9650    24.7900   -28.7480 ha         1 KXH       0.132000
     23 H3          43.1520    29.4900   -30.1550 ha         1 KXH       0.138000
     24 H4          49.9590    30.9820   -30.7800 h1         1 KXH       0.027700
     25 H5          50.9440    31.1770   -32.2550 h1         1 KXH       0.027700
     26 H6          48.8470    31.1370   -33.6440 hc         1 KXH       0.050700
     27 H7          47.8800    30.9470   -32.1790 hc         1 KXH       0.050700
     28 H8          39.5840    31.2420   -31.6100 hc         1 KXH       0.048033
     29 H9          40.8070    30.5590   -30.5220 hc         1 KXH       0.048033
     30 H10         41.2850    31.7050   -31.7990 hc         1 KXH       0.048033
     31 H11         40.6080    30.0070   -33.5590 h1         1 KXH       0.059700
     32 H12         40.0740    28.9120   -32.2730 h1         1 KXH       0.059700
     33 H13         45.7660    30.2310   -34.2660 h4         1 KXH       0.172000
     34 H14         48.1920    27.4100   -33.6730 h1         1 KXH       0.066200
     35 H15         47.9680    28.8950   -34.6080 h1         1 KXH       0.066200
     36 H16         49.0030    28.7460   -31.7170 hc         1 KXH       0.059700
     37 H17         50.0080    28.9520   -33.1480 hc         1 KXH       0.059700
     38 H18         50.5680    33.2610   -31.2230 hn         1 KXH       0.393000
     39 H19         49.8690    33.2400   -32.6770 hn         1 KXH       0.393000
     40 C5          47.9480    28.4770   -33.5940 c3         1 KXH       0.088600
     41 Cl1         42.0860    25.9490   -26.9190 cl         1 KXH      -0.175000
     42 C           40.6140    30.8730   -31.5540 c3         1 KXH      -0.124100
@<TRIPOS>BOND
     1     1    14 2   
     2     2    16 1   
     3     2    19 1   
     4     2    40 1   
     5     3     4 ar  
     6     3     9 ar  
     7     3    21 1   
     8     4     6 ar  
     9     4    22 1   
    10     5    13 1   
    11     5    14 1   
    12     6     7 ar  
    13     6    41 1   
    14     7     8 ar  
    15     7    18 1   
    16     8     9 ar  
    17     8    23 1   
    18     9    10 1   
    19    10    15 1   
    20    10    19 2   
    21    11    12 1   
    22    11    20 1   
    23    11    24 1   
    24    11    25 1   
    25    12    17 1   
    26    12    26 1   
    27    12    27 1   
    28    13    31 1   
    29    13    32 1   
    30    13    42 1   
    31    14    15 1   
    32    15    16 2   
    33    16    33 1   
    34    17    36 1   
    35    17    37 1   
    36    17    40 1   
    37    20    38 1   
    38    20    39 1   
    39    28    42 1   
    40    29    42 1   
    41    30    42 1   
    42    34    40 1   
    43    35    40 1   
@<TRIPOS>SUBSTRUCTURE
     1 KXH         1 TEMP              0 ****  ****    0 ROOT
