@<TRIPOS>MOLECULE
KXJ
   92    92     1     0     0
SMALL
bcc


@<TRIPOS>ATOM
      1 C1           6.2420    -1.6340    -0.6470 c          1 KXJ       0.665100
      2 C2           3.8710    -0.9170    -0.3620 c3         1 KXJ      -0.091400
      3 C3           2.8550    -0.0550     0.3770 c3         1 KXJ      -0.072400
      4 C4           1.4280    -0.4230    -0.0050 c3         1 KXJ      -0.097400
      5 C5           0.4100     0.4120     0.7530 c3         1 KXJ       0.090000
      6 C6          -2.0460     0.5770     0.8490 cs         1 KXJ       0.448400
      7 O4           7.6990     0.6280     0.5890 o          1 KXJ      -0.603100
      8 N            6.4780    -2.7250     0.1190 ns         1 KXJ      -0.464100
      9 C            5.3200    -0.6120     0.0240 c3         1 KXJ       0.039700
     10 O            6.6560    -1.4740    -1.7780 o          1 KXJ      -0.573100
     11 C10         -7.1580     0.3960     0.6100 c3         1 KXJ      -0.073400
     12 C11         -8.3420    -0.2750    -0.0740 c3         1 KXJ      -0.074400
     13 C12         -9.6950     0.2240     0.4170 c3         1 KXJ      -0.074400
     14 C13        -10.8680    -0.4570    -0.2760 c3         1 KXJ      -0.074400
     15 C14        -12.2280     0.0330     0.2070 c3         1 KXJ      -0.074400
     16 C15        -13.3930    -0.6570    -0.4910 c3         1 KXJ      -0.074400
     17 C16        -14.7580    -0.1750    -0.0150 c3         1 KXJ      -0.074400
     18 C17        -15.9170    -0.8700    -0.7180 c3         1 KXJ      -0.075400
     19 C18        -17.2850    -0.3930    -0.2460 c3         1 KXJ      -0.075400
     20 C19        -18.4350    -1.0960    -0.9550 c3         1 KXJ      -0.088100
     21 C20          7.1850    -3.8930    -0.1870 ca         1 KXJ       0.073600
     22 C21          7.3400    -4.8200     0.8470 ca         1 KXJ      -0.167000
     23 C22          8.0180    -6.0080     0.6360 ca         1 KXJ      -0.101500
     24 C23          8.5580    -6.2960    -0.6120 ca         1 KXJ      -0.154000
     25 C24          8.4040    -5.3760    -1.6380 ca         1 KXJ      -0.101500
     26 C25          7.7260    -4.1800    -1.4410 ca         1 KXJ      -0.167000
     27 C27          7.1780     2.5880    -0.7020 c3         1 KXJ      -0.158400
     28 C28          8.0320     3.4450     0.2140 c3         1 KXJ       0.146400
     29 C7          -3.3110     0.0030     0.2550 c3         1 KXJ      -0.124400
     30 C8          -4.6240     0.5480     0.7870 c3         1 KXJ      -0.065400
     31 C9          -5.8150    -0.1170     0.1070 c3         1 KXJ      -0.076400
     32 N1          -0.9360     0.0440     0.3660 ns         1 KXJ      -0.468900
     33 N5           5.6780     0.7210    -0.3800 ns         1 KXJ      -0.560900
     34 H1           3.6750    -1.9690    -0.1370 hc         1 KXJ       0.058200
     35 H2           3.7530    -0.8020    -1.4440 hc         1 KXJ       0.058200
     36 H3           2.9920    -0.1800     1.4550 hc         1 KXJ       0.051700
     37 H4           3.0220     1.0040     0.1630 hc         1 KXJ       0.051700
     38 H5           1.2920    -0.2810    -1.0820 hc         1 KXJ       0.046200
     39 H6           1.2580    -1.4840     0.2000 hc         1 KXJ       0.046200
     40 H7           0.5250     0.2720     1.8310 h1         1 KXJ       0.073200
     41 H8           0.5620     1.4770     0.5580 h1         1 KXJ       0.073200
     42 H11          6.1090    -2.6920     1.0580 hn         1 KXJ       0.317500
     43 H12          5.4120    -0.6960     1.1120 h1         1 KXJ       0.072700
     44 H13         -7.2160     1.4790     0.4570 hc         1 KXJ       0.042200
     45 H14         -7.2260     0.2390     1.6920 hc         1 KXJ       0.042200
     46 H15         -8.2700    -0.1190    -1.1570 hc         1 KXJ       0.035700
     47 H16         -8.2800    -1.3590     0.0770 hc         1 KXJ       0.035700
     48 H17         -9.7700     0.0670     1.4990 hc         1 KXJ       0.038700
     49 H18         -9.7610     1.3070     0.2650 hc         1 KXJ       0.038700
     50 H19        -10.7900    -0.3000    -1.3570 hc         1 KXJ       0.036700
     51 H20        -10.7990    -1.5400    -0.1240 hc         1 KXJ       0.036700
     52 H21        -12.3080    -0.1240     1.2880 hc         1 KXJ       0.037700
     53 H22        -12.3010     1.1150     0.0520 hc         1 KXJ       0.037700
     54 H23        -13.3110    -0.5010    -1.5730 hc         1 KXJ       0.036700
     55 H24        -13.3180    -1.7390    -0.3380 hc         1 KXJ       0.036700
     56 H25        -14.8420    -0.3320     1.0660 hc         1 KXJ       0.037700
     57 H26        -14.8360     0.9070    -0.1700 hc         1 KXJ       0.037700
     58 H27        -15.8330    -0.7140    -1.7990 hc         1 KXJ       0.036700
     59 H28        -15.8380    -1.9520    -0.5640 hc         1 KXJ       0.036700
     60 H29        -17.3700    -0.5500     0.8340 hc         1 KXJ       0.036700
     61 H30        -17.3650     0.6870    -0.4010 hc         1 KXJ       0.036700
     62 H31        -18.3990    -2.1750    -0.7890 hc         1 KXJ       0.031367
     63 H32        -19.4030    -0.7400    -0.6020 hc         1 KXJ       0.031367
     64 H33        -18.3940    -0.9290    -2.0330 hc         1 KXJ       0.031367
     65 H34          6.9260    -4.6060     1.8260 ha         1 KXJ       0.144500
     66 H35          8.1260    -6.7090     1.4530 ha         1 KXJ       0.131000
     67 H36          9.0900    -7.2230    -0.7800 ha         1 KXJ       0.133000
     68 H37          8.8180    -5.5850    -2.6160 ha         1 KXJ       0.131000
     69 H38          7.6250    -3.4870    -2.2600 ha         1 KXJ       0.144500
     70 H39          7.7070     2.4200    -1.6460 hc         1 KXJ       0.074200
     71 H40          6.2500     3.1070    -0.9490 hc         1 KXJ       0.074200
     72 H41          7.5050     3.6260     1.1610 h1         1 KXJ       0.036200
     73 H42          8.9630     2.9210     0.4640 h1         1 KXJ       0.036200
     74 H44         -3.2640     0.1560    -0.8290 hc         1 KXJ       0.053200
     75 H45         -3.2800    -1.0830     0.3980 hc         1 KXJ       0.053200
     76 H46         -4.6800     0.3910     1.8670 hc         1 KXJ       0.065200
     77 H47         -4.6660     1.6290     0.6330 hc         1 KXJ       0.065200
     78 H48         -5.7620    -1.2010     0.2580 hc         1 KXJ       0.033200
     79 H49         -5.7510     0.0380    -0.9760 hc         1 KXJ       0.033200
     80 H50         -1.0300    -0.6790    -0.3340 hn         1 KXJ       0.306500
     81 H52          5.0730     1.2120    -1.0180 hn         1 KXJ       0.324500
     82 O1           8.3030     4.6570    -0.4440 os         1 KXJ      -0.405600
     83 C30          9.1040     5.5170     0.3280 c3         1 KXJ       0.138400
     84 C31          9.4040     6.7770    -0.4430 c3         1 KXJ       0.139400
     85 S1          -2.0280     1.7750     2.0040 s          1 KXJ      -0.582400
     86 O2           8.2130     7.5000    -0.6520 oh         1 KXJ      -0.586800
     87 H9           8.6080     5.7660     1.2780 h1         1 KXJ       0.030200
     88 H10         10.0590     5.0380     0.5850 h1         1 KXJ       0.030200
     89 H43         10.1330     7.3500     0.1430 h1         1 KXJ       0.025200
     90 H51          9.8930     6.5130    -1.3900 h1         1 KXJ       0.025200
     91 H53          8.4330     8.3000    -1.1370 ho         1 KXJ       0.402000
     92 C26          6.8890     1.2340    -0.0990 c          1 KXJ       0.671100
@<TRIPOS>BOND
     1     1     8 1   
     2     1     9 1   
     3     1    10 2   
     4     2     3 1   
     5     2     9 1   
     6     2    34 1   
     7     2    35 1   
     8     3     4 1   
     9     3    36 1   
    10     3    37 1   
    11     4     5 1   
    12     4    38 1   
    13     4    39 1   
    14     5    32 1   
    15     5    40 1   
    16     5    41 1   
    17     6    29 1   
    18     6    32 1   
    19     6    85 2   
    20     7    92 2   
    21     8    21 1   
    22     8    42 1   
    23     9    33 1   
    24     9    43 1   
    25    11    12 1   
    26    11    31 1   
    27    11    44 1   
    28    11    45 1   
    29    12    13 1   
    30    12    46 1   
    31    12    47 1   
    32    13    14 1   
    33    13    48 1   
    34    13    49 1   
    35    14    15 1   
    36    14    50 1   
    37    14    51 1   
    38    15    16 1   
    39    15    52 1   
    40    15    53 1   
    41    16    17 1   
    42    16    54 1   
    43    16    55 1   
    44    17    18 1   
    45    17    56 1   
    46    17    57 1   
    47    18    19 1   
    48    18    58 1   
    49    18    59 1   
    50    19    20 1   
    51    19    60 1   
    52    19    61 1   
    53    20    62 1   
    54    20    63 1   
    55    20    64 1   
    56    21    22 ar  
    57    21    26 ar  
    58    22    23 ar  
    59    22    65 1   
    60    23    24 ar  
    61    23    66 1   
    62    24    25 ar  
    63    24    67 1   
    64    25    26 ar  
    65    25    68 1   
    66    26    69 1   
    67    27    28 1   
    68    27    70 1   
    69    27    71 1   
    70    27    92 1   
    71    28    72 1   
    72    28    73 1   
    73    28    82 1   
    74    29    30 1   
    75    29    74 1   
    76    29    75 1   
    77    30    31 1   
    78    30    76 1   
    79    30    77 1   
    80    31    78 1   
    81    31    79 1   
    82    32    80 1   
    83    33    81 1   
    84    33    92 1   
    85    82    83 1   
    86    83    84 1   
    87    83    87 1   
    88    83    88 1   
    89    84    86 1   
    90    84    89 1   
    91    84    90 1   
    92    86    91 1   
@<TRIPOS>SUBSTRUCTURE
     1 KXJ         1 TEMP              0 ****  ****    0 ROOT
