@<TRIPOS>MOLECULE
KXJ
   92    92     1     0     0
SMALL
No Charge or Current Charge


@<TRIPOS>ATOM
      1 C1           7.0130    -1.8840    -0.6970 c          1 KXJ       0.598100
      2 C2           4.5170    -1.4230    -0.2760 c3         1 KXJ      -0.091400
      3 C3           3.4190    -0.7750     0.6020 c3         1 KXJ      -0.072400
      4 C4           1.9910    -1.1740     0.1720 c3         1 KXJ      -0.097400
      5 C5           0.8980    -0.5220     1.0450 c3         1 KXJ       0.090000
      6 C6          -1.1770    -0.3710    -0.4010 cs         1 KXJ       0.381400
      7 O4           5.8490     0.8090     2.3330 o          1 KXJ      -0.603100
      8 N            7.0220    -3.2580    -0.4760 ns         1 KXJ      -0.138000
      9 C            5.9740    -1.1150     0.1730 c3         1 KXJ       0.039700
     10 O            7.7520    -1.3100    -1.4920 o          1 KXJ      -0.573100
     11 C10         -6.2720     0.1910    -0.1250 c3         1 KXJ      -0.073400
     12 C11         -7.6520    -0.4760    -0.3150 c3         1 KXJ      -0.074400
     13 C12         -8.8300     0.4640     0.0220 c3         1 KXJ      -0.074400
     14 C13        -10.2100    -0.2030    -0.1680 c3         1 KXJ      -0.074400
     15 C14        -11.3880     0.7370     0.1680 c3         1 KXJ      -0.074400
     16 C15        -12.7670     0.0700    -0.0220 c3         1 KXJ      -0.074400
     17 C16        -13.9450     1.0100     0.3140 c3         1 KXJ      -0.074400
     18 C17        -15.3250     0.3420     0.1240 c3         1 KXJ      -0.075400
     19 C18        -16.5030     1.2830     0.4600 c3         1 KXJ      -0.075400
     20 C19        -17.8800     0.6170     0.2710 c3         1 KXJ      -0.088100
     21 C20          7.7830    -4.3180    -1.0430 ca         1 KXJ      -0.019000
     22 C21          7.5580    -5.6160    -0.5450 ca         1 KXJ      -0.149000
     23 C22          8.2690    -6.7160    -1.0560 ca         1 KXJ      -0.083500
     24 C23          9.2150    -6.5260    -2.0750 ca         1 KXJ      -0.136000
     25 C24          9.4480    -5.2380    -2.5820 ca         1 KXJ      -0.083500
     26 C25          8.7360    -4.1380    -2.0710 ca         1 KXJ      -0.149000
     27 C27          6.4520     2.6580     0.9100 c3         1 KXJ      -0.158400
     28 C28          5.1550     3.4800     0.8970 c3         1 KXJ       0.169600
     29 C7          -2.5360    -1.0260    -0.6080 c3         1 KXJ      -0.124400
     30 C8          -3.7150    -0.0830    -0.2710 c3         1 KXJ      -0.065400
     31 C9          -5.0950    -0.7500    -0.4610 c3         1 KXJ      -0.076400
     32 N1          -0.4490    -0.9160     0.6260 ns         1 KXJ      -0.401900
     33 N5           6.2460     0.3430     0.1380 ns         1 KXJ      -0.493900
     34 H1           4.3640    -2.5100    -0.2710 hc         1 KXJ       0.058200
     35 H2           4.3850    -1.0950    -1.3150 hc         1 KXJ       0.058200
     36 H3           3.5750    -1.0640     1.6490 hc         1 KXJ       0.051700
     37 H4           3.5070     0.3170     0.5530 hc         1 KXJ       0.051700
     38 H5           1.8380    -0.8880    -0.8760 hc         1 KXJ       0.046200
     39 H6           1.8870    -2.2650     0.2250 hc         1 KXJ       0.046200
     40 H7           1.0400    -0.8230     2.0920 h1         1 KXJ       0.073200
     41 H8           0.9860     0.5710     0.9970 h1         1 KXJ       0.073200
     42 H11          6.3570    -3.5660     0.2210 hn         1 KXJ       0.151000
     43 H12          6.1050    -1.4740     1.2030 h1         1 KXJ       0.072700
     44 H13         -6.2130     1.0830    -0.7610 hc         1 KXJ       0.042200
     45 H14         -6.1770     0.5310     0.9140 hc         1 KXJ       0.042200
     46 H15         -7.7480    -0.8160    -1.3540 hc         1 KXJ       0.035700
     47 H16         -7.7110    -1.3690     0.3210 hc         1 KXJ       0.035700
     48 H17         -8.7340     0.8040     1.0600 hc         1 KXJ       0.038700
     49 H18         -8.7710     1.3570    -0.6140 hc         1 KXJ       0.038700
     50 H19        -10.3050    -0.5430    -1.2070 hc         1 KXJ       0.036700
     51 H20        -10.2690    -1.0960     0.4670 hc         1 KXJ       0.036700
     52 H21        -11.2920     1.0770     1.2070 hc         1 KXJ       0.037700
     53 H22        -11.3290     1.6300    -0.4680 hc         1 KXJ       0.037700
     54 H23        -12.8630    -0.2700    -1.0610 hc         1 KXJ       0.036700
     55 H24        -12.8260    -0.8230     0.6140 hc         1 KXJ       0.036700
     56 H25        -13.8500     1.3500     1.3530 hc         1 KXJ       0.037700
     57 H26        -13.8860     1.9020    -0.3220 hc         1 KXJ       0.037700
     58 H27        -15.4210     0.0030    -0.9150 hc         1 KXJ       0.036700
     59 H28        -15.3840    -0.5500     0.7600 hc         1 KXJ       0.036700
     60 H29        -16.4120     1.6230     1.4990 hc         1 KXJ       0.036700
     61 H30        -16.4490     2.1750    -0.1750 hc         1 KXJ       0.036700
     62 H31        -17.9790    -0.2610     0.9200 hc         1 KXJ       0.031367
     63 H32        -18.6820     1.3210     0.5210 hc         1 KXJ       0.031367
     64 H33        -18.0160     0.2960    -0.7690 hc         1 KXJ       0.031367
     65 H34          6.8270    -5.7780     0.2450 ha         1 KXJ       0.126500
     66 H35          8.0870    -7.7140    -0.6620 ha         1 KXJ       0.113000
     67 H36          9.7670    -7.3760    -2.4720 ha         1 KXJ       0.115000
     68 H37         10.1800    -5.0910    -3.3740 ha         1 KXJ       0.113000
     69 H38          8.9410    -3.1580    -2.4910 ha         1 KXJ       0.126500
     70 H39          7.1060     3.0530     1.6960 hc         1 KXJ       0.074200
     71 H40          6.9350     2.7520    -0.0690 hc         1 KXJ       0.074200
     72 H41          4.4700     3.0770     0.1390 h1         1 KXJ       0.036200
     73 H42          4.6650     3.4170     1.8790 h1         1 KXJ       0.036200
     74 H44         -2.6190    -1.3420    -1.6550 hc         1 KXJ       0.053200
     75 H45         -2.6220    -1.9390    -0.0050 hc         1 KXJ       0.053200
     76 H46         -3.6170     0.2560     0.7680 hc         1 KXJ       0.065200
     77 H47         -3.6570     0.8110    -0.9040 hc         1 KXJ       0.065200
     78 H48         -5.1550    -1.6430     0.1750 hc         1 KXJ       0.033200
     79 H49         -5.1910    -1.0900    -1.5000 hc         1 KXJ       0.033200
     80 H50         -0.8890    -1.6740     1.1370 hn         1 KXJ       0.306500
     81 H52          6.5430     0.7500    -0.7430 hn         1 KXJ       0.324500
     82 O1           5.5110     4.8370     0.5920 os         1 KXJ      -0.452000
     83 C30          4.3940     5.7490     0.5390 c3         1 KXJ       0.161600
     84 C31          4.9100     7.1730     0.1970 c3         1 KXJ       0.162600
     85 S1          -0.6320     0.8840    -1.3690 s          1 KXJ      -0.582400
     86 O2           5.4170     7.2490    -1.1500 oh         1 KXJ      -0.709000
     87 H9           3.6640     5.4330    -0.2190 h1         1 KXJ       0.030200
     88 H10          3.8830     5.7820     1.5100 h1         1 KXJ       0.030200
     89 H43          4.0810     7.8820     0.3240 h1         1 KXJ       0.025200
     90 H51          5.6910     7.4510     0.9180 h1         1 KXJ       0.025200
     91 H53          5.7830     8.1560    -1.2680 ho         1 KXJ       0.501000
     92 C26          6.1410     1.1980     1.2120 c          1 KXJ       0.604100
@<TRIPOS>BOND
     1     1     8 1   
     2     1     9 1   
     3     1    10 2   
     4     2     3 1   
     5     2     9 1   
     6     2    34 1   
     7     2    35 1   
     8     3     4 1   
     9     3    36 1   
    10     3    37 1   
    11     4     5 1   
    12     4    38 1   
    13     4    39 1   
    14     5    32 1   
    15     5    40 1   
    16     5    41 1   
    17     6    29 1   
    18     6    32 1   
    19     6    85 2   
    20     7    92 2   
    21     8    21 1   
    22     8    42 1   
    23     9    33 1   
    24     9    43 1   
    25    11    12 1   
    26    11    31 1   
    27    11    44 1   
    28    11    45 1   
    29    12    13 1   
    30    12    46 1   
    31    12    47 1   
    32    13    14 1   
    33    13    48 1   
    34    13    49 1   
    35    14    15 1   
    36    14    50 1   
    37    14    51 1   
    38    15    16 1   
    39    15    52 1   
    40    15    53 1   
    41    16    17 1   
    42    16    54 1   
    43    16    55 1   
    44    17    18 1   
    45    17    56 1   
    46    17    57 1   
    47    18    19 1   
    48    18    58 1   
    49    18    59 1   
    50    19    20 1   
    51    19    60 1   
    52    19    61 1   
    53    20    62 1   
    54    20    63 1   
    55    20    64 1   
    56    21    22 ar  
    57    21    26 ar  
    58    22    23 ar  
    59    22    65 1   
    60    23    24 ar  
    61    23    66 1   
    62    24    25 ar  
    63    24    67 1   
    64    25    26 ar  
    65    25    68 1   
    66    26    69 1   
    67    27    28 1   
    68    27    70 1   
    69    27    71 1   
    70    27    92 1   
    71    28    72 1   
    72    28    73 1   
    73    28    82 1   
    74    29    30 1   
    75    29    74 1   
    76    29    75 1   
    77    30    31 1   
    78    30    76 1   
    79    30    77 1   
    80    31    78 1   
    81    31    79 1   
    82    32    80 1   
    83    33    81 1   
    84    33    92 1   
    85    82    83 1   
    86    83    84 1   
    87    83    87 1   
    88    83    88 1   
    89    84    86 1   
    90    84    89 1   
    91    84    90 1   
    92    86    91 1   
@<TRIPOS>SUBSTRUCTURE
     1 KXJ         1 TEMP              0 ****  ****    0 ROOT
