@<TRIPOS>MOLECULE
KXK
   64    67     1     0     0
SMALL
bcc


@<TRIPOS>ATOM
      1 C1          12.7090   -10.2360    -9.4800 c3         1 KXK      -0.037800
      2 N1          16.2890    -6.6610    -6.3170 ns         1 KXK      -0.460100
      3 O1          15.4480    -5.9870    -8.3280 o          1 KXK      -0.604100
      4 C2          14.7480   -10.4360    -7.8360 cc         1 KXK      -0.269600
      5 N2          18.2490    -1.4920    -7.8990 n3         1 KXK      -0.785500
      6 C3          14.7170   -11.8710    -7.5780 c          1 KXK       0.613700
      7 C4          15.4610   -12.3990    -6.3660 c3         1 KXK      -0.171400
      8 C5          15.3810   -11.4920    -5.1310 c3         1 KXK      -0.064400
      9 C6          16.4630   -10.4130    -5.0650 c3         1 KXK      -0.067400
     10 C7          16.8200    -9.8280    -6.4330 c3         1 KXK      -0.023100
     11 C8          15.6250    -9.4730    -7.2590 cc         1 KXK      -0.042300
     12 C9          15.2130    -8.2430    -7.7240 cd         1 KXK      -0.214900
     13 C10         15.6630    -6.8660    -7.5060 c          1 KXK       0.717700
     14 C11         16.9360    -5.5120    -5.8660 ca         1 KXK       0.021600
     15 C12         17.8230    -5.6760    -4.7790 ca         1 KXK       0.143100
     16 C13         18.7700    -7.1850    -3.2010 c3         1 KXK       0.128700
     17 C14         18.4840    -4.5790    -4.2490 ca         1 KXK      -0.218000
     18 C15         18.2990    -3.3170    -4.7970 ca         1 KXK      -0.013000
     19 C16         17.4390    -3.1640    -5.8680 ca         1 KXK      -0.303500
     20 C17         17.8600    -2.1660    -9.1390 c3         1 KXK       0.230800
     21 C18         19.0080    -2.8920    -9.8270 c3         1 KXK      -0.093900
     22 C19         19.8540    -3.7690    -8.9040 c3         1 KXK      -0.070400
     23 C20         21.0190    -3.0190    -8.2620 c3         1 KXK      -0.070400
     24 C21         20.6410    -1.9280    -7.2680 c3         1 KXK      -0.093900
     25 C22         19.5920    -0.9360    -7.7590 c3         1 KXK       0.230800
     26 C23         16.7380    -4.2460    -6.3930 ca         1 KXK      -0.033000
     27 N           14.1500    -8.4550    -8.5710 na         1 KXK      -0.117100
     28 C           13.8450    -9.7540    -8.6540 cd         1 KXK      -0.006600
     29 O           14.0700   -12.6280    -8.2840 o          1 KXK      -0.551100
     30 O2          17.9420    -6.9300    -4.3240 os         1 KXK      -0.336900
     31 O3          17.6830    -0.5780    -5.6450 o          1 KXK      -0.613300
     32 O4          15.8770    -1.5130    -7.1260 o          1 KXK      -0.613300
     33 S           17.2400    -1.5700    -6.6150 sy         1 KXK       1.332200
     34 H1          13.0580   -10.8520   -10.3090 hc         1 KXK       0.061033
     35 H2          12.0260   -10.8460    -8.8920 hc         1 KXK       0.061033
     36 H3          12.1500    -9.3980    -9.8930 hc         1 KXK       0.061033
     37 H4          16.2930    -7.4350    -5.6710 hn         1 KXK       0.341500
     38 H5          15.0430   -13.3820    -6.1430 hc         1 KXK       0.065200
     39 H6          16.5060   -12.5760    -6.6460 hc         1 KXK       0.065200
     40 H7          14.3910   -11.0300    -5.0930 hc         1 KXK       0.045700
     41 H8          15.4510   -12.1140    -4.2370 hc         1 KXK       0.045700
     42 H9          17.3760   -10.8290    -4.6320 hc         1 KXK       0.039700
     43 H10         16.1370    -9.6170    -4.3910 hc         1 KXK       0.039700
     44 H11         17.3990   -10.5690    -6.9920 hc         1 KXK       0.054200
     45 H12         17.4970    -8.9820    -6.3140 hc         1 KXK       0.054200
     46 H13         18.7010    -8.2520    -3.0090 h1         1 KXK       0.047367
     47 H14         19.8110    -6.9260    -3.4040 h1         1 KXK       0.047367
     48 H15         18.4270    -6.6390    -2.3200 h1         1 KXK       0.047367
     49 H16         19.1540    -4.6870    -3.4070 ha         1 KXK       0.140000
     50 H17         18.8250    -2.4750    -4.3710 ha         1 KXK       0.157000
     51 H18         17.4130    -1.4440    -9.8280 h1         1 KXK       0.059700
     52 H19         17.0850    -2.9010    -8.9210 h1         1 KXK       0.059700
     53 H20         18.5500    -3.5000   -10.6110 hc         1 KXK       0.044950
     54 H21         19.6550    -2.1820   -10.3470 hc         1 KXK       0.044950
     55 H22         19.2220    -4.2340    -8.1390 hc         1 KXK       0.040450
     56 H23         20.2690    -4.5920    -9.4900 hc         1 KXK       0.040450
     57 H24         21.6740    -3.7340    -7.7580 hc         1 KXK       0.040450
     58 H25         21.6180    -2.5760    -9.0650 hc         1 KXK       0.040450
     59 H26         20.2990    -2.3790    -6.3340 hc         1 KXK       0.044950
     60 H27         21.5400    -1.3600    -7.0110 hc         1 KXK       0.044950
     61 H28         19.8700    -0.5310    -8.7350 h1         1 KXK       0.059700
     62 H29         19.5500    -0.0800    -7.0880 h1         1 KXK       0.059700
     63 H30         16.0290    -4.1090    -7.1920 ha         1 KXK       0.184000
     64 H31         13.6490    -7.7170    -9.0430 hn         1 KXK       0.316700
@<TRIPOS>BOND
     1     1    28 1   
     2     1    34 1   
     3     1    35 1   
     4     1    36 1   
     5     2    13 1   
     6     2    14 1   
     7     2    37 1   
     8     3    13 2   
     9     4     6 1   
    10     4    11 1   
    11     4    28 2   
    12     5    20 1   
    13     5    25 1   
    14     5    33 1   
    15     6     7 1   
    16     6    29 2   
    17     7     8 1   
    18     7    38 1   
    19     7    39 1   
    20     8     9 1   
    21     8    40 1   
    22     8    41 1   
    23     9    10 1   
    24     9    42 1   
    25     9    43 1   
    26    10    11 1   
    27    10    44 1   
    28    10    45 1   
    29    11    12 2   
    30    12    13 1   
    31    12    27 1   
    32    14    15 ar  
    33    14    26 ar  
    34    15    17 ar  
    35    15    30 1   
    36    16    30 1   
    37    16    46 1   
    38    16    47 1   
    39    16    48 1   
    40    17    18 ar  
    41    17    49 1   
    42    18    19 ar  
    43    18    50 1   
    44    19    26 ar  
    45    19    33 1   
    46    20    21 1   
    47    20    51 1   
    48    20    52 1   
    49    21    22 1   
    50    21    53 1   
    51    21    54 1   
    52    22    23 1   
    53    22    55 1   
    54    22    56 1   
    55    23    24 1   
    56    23    57 1   
    57    23    58 1   
    58    24    25 1   
    59    24    59 1   
    60    24    60 1   
    61    25    61 1   
    62    25    62 1   
    63    26    63 1   
    64    27    28 1   
    65    27    64 1   
    66    31    33 2   
    67    32    33 2   
@<TRIPOS>SUBSTRUCTURE
     1 KXK         1 TEMP              0 ****  ****    0 ROOT
