@<TRIPOS>MOLECULE
KXK
   64    67     1     0     0
SMALL
No Charge or Current Charge


@<TRIPOS>ATOM
      1 C1          11.8000   -10.4920    -9.2510 c3         1 KXK      -0.037800
      2 N1          16.0300    -6.9770    -6.5120 ns         1 KXK      -0.134000
      3 O1          14.5830    -6.0450    -8.0390 o          1 KXK      -0.604100
      4 C2          14.0240   -10.6200    -7.8540 cc         1 KXK      -0.269600
      5 N2          18.9910    -1.7840    -7.3520 n3         1 KXK      -0.785500
      6 C3          14.0050   -12.0960    -7.5710 c          1 KXK       0.613700
      7 C4          15.0760   -12.7220    -6.6620 c3         1 KXK      -0.171400
      8 C5          15.1720   -11.9680    -5.3140 c3         1 KXK      -0.064400
      9 C6          16.1160   -10.7390    -5.3400 c3         1 KXK      -0.067400
     10 C7          16.2780   -10.0540    -6.7180 c3         1 KXK      -0.023100
     11 C8          14.9820    -9.6570    -7.4020 cc         1 KXK      -0.042300
     12 C9          14.5160    -8.4030    -7.7780 cd         1 KXK      -0.265600
     13 C10         15.0470    -7.0350    -7.4830 c          1 KXK       0.650700
     14 C11         16.7930    -5.9080    -5.9600 ca         1 KXK      -0.071000
     15 C12         17.6350    -6.2080    -4.8690 ca         1 KXK       0.143100
     16 C13         18.4850    -7.9290    -3.3050 c3         1 KXK       0.151900
     17 C14         18.4220    -5.1940    -4.2820 ca         1 KXK      -0.200000
     18 C15         18.3740    -3.8840    -4.7820 ca         1 KXK       0.005000
     19 C16         17.5400    -3.5780    -5.8720 ca         1 KXK      -0.303500
     20 C17         19.3220    -2.9830    -8.1640 c3         1 KXK       0.230800
     21 C18         20.5680    -2.9060    -9.0790 c3         1 KXK      -0.093900
     22 C19         21.8000    -2.1820    -8.4920 c3         1 KXK      -0.070400
     23 C20         21.7360    -0.6470    -8.6500 c3         1 KXK      -0.070400
     24 C21         20.6460     0.0510    -7.8100 c3         1 KXK      -0.093900
     25 C22         19.2050    -0.4730    -8.0020 c3         1 KXK       0.230800
     26 C23         16.7510    -4.5870    -6.4630 ca         1 KXK      -0.015000
     27 N           13.3610    -8.6190    -8.5390 na         1 KXK      -0.066000
     28 C           13.0380    -9.9700    -8.5620 cd         1 KXK      -0.057300
     29 O           13.0730   -12.8040    -7.9330 o          1 KXK      -0.551100
     30 O2          17.6590    -7.5120    -4.4060 os         1 KXK      -0.360100
     31 O3          17.6290    -0.9860    -5.3740 o          1 KXK      -0.542500
     32 O4          16.4450    -1.7630    -7.5190 o          1 KXK      -0.542500
     33 S           17.5100    -1.8950    -6.5190 sy         1 KXK       1.190600
     34 H1          12.0540   -11.2580    -9.9920 hc         1 KXK       0.061033
     35 H2          11.1050   -10.9360    -8.5290 hc         1 KXK       0.061033
     36 H3          11.2630    -9.6930    -9.7760 hc         1 KXK       0.061033
     37 H4          16.2340    -7.8710    -6.0870 hn         1 KXK       0.175000
     38 H5          14.8230   -13.7740    -6.4840 hc         1 KXK       0.065200
     39 H6          16.0510   -12.6870    -7.1560 hc         1 KXK       0.065200
     40 H7          14.1680   -11.6530    -5.0030 hc         1 KXK       0.045700
     41 H8          15.5270   -12.6590    -4.5390 hc         1 KXK       0.045700
     42 H9          17.1110   -11.0540    -5.0020 hc         1 KXK       0.039700
     43 H10         15.7620   -10.0020    -4.6080 hc         1 KXK       0.039700
     44 H11         16.8320   -10.7160    -7.3920 hc         1 KXK       0.054200
     45 H12         16.9750    -9.2230    -6.6090 hc         1 KXK       0.054200
     46 H13         18.3470    -8.9990    -3.1100 h1         1 KXK       0.047367
     47 H14         19.5460    -7.7580    -3.5270 h1         1 KXK       0.047367
     48 H15         18.2230    -7.3810    -2.3910 h1         1 KXK       0.047367
     49 H16         19.0780    -5.4020    -3.4420 ha         1 KXK       0.122000
     50 H17         18.9930    -3.1110    -4.3270 ha         1 KXK       0.139000
     51 H18         18.4690    -3.2540    -8.8010 h1         1 KXK       0.059700
     52 H19         19.4910    -3.8330    -7.4900 h1         1 KXK       0.059700
     53 H20         20.8540    -3.9330    -9.3350 hc         1 KXK       0.044950
     54 H21         20.2870    -2.4300   -10.0270 hc         1 KXK       0.044950
     55 H22         21.9310    -2.4510    -7.4370 hc         1 KXK       0.040450
     56 H23         22.6940    -2.5390    -9.0200 hc         1 KXK       0.040450
     57 H24         22.7090    -0.2260    -8.3710 hc         1 KXK       0.040450
     58 H25         21.5880    -0.4000    -9.7090 hc         1 KXK       0.040450
     59 H26         20.9080    -0.0220    -6.7470 hc         1 KXK       0.044950
     60 H27         20.6580     1.1190    -8.0570 hc         1 KXK       0.044950
     61 H28         18.9520    -0.5100    -9.0700 h1         1 KXK       0.059700
     62 H29         18.5460     0.2850    -7.5560 h1         1 KXK       0.059700
     63 H30         16.1220    -4.3360    -7.3130 ha         1 KXK       0.166000
     64 H31         12.8110    -7.8840    -8.9750 hn         1 KXK       0.367000
@<TRIPOS>BOND
     1     1    28 1   
     2     1    34 1   
     3     1    35 1   
     4     1    36 1   
     5     2    13 1   
     6     2    14 1   
     7     2    37 1   
     8     3    13 2   
     9     4     6 1   
    10     4    11 1   
    11     4    28 2   
    12     5    20 1   
    13     5    25 1   
    14     5    33 1   
    15     6     7 1   
    16     6    29 2   
    17     7     8 1   
    18     7    38 1   
    19     7    39 1   
    20     8     9 1   
    21     8    40 1   
    22     8    41 1   
    23     9    10 1   
    24     9    42 1   
    25     9    43 1   
    26    10    11 1   
    27    10    44 1   
    28    10    45 1   
    29    11    12 2   
    30    12    13 1   
    31    12    27 1   
    32    14    15 ar  
    33    14    26 ar  
    34    15    17 ar  
    35    15    30 1   
    36    16    30 1   
    37    16    46 1   
    38    16    47 1   
    39    16    48 1   
    40    17    18 ar  
    41    17    49 1   
    42    18    19 ar  
    43    18    50 1   
    44    19    26 ar  
    45    19    33 1   
    46    20    21 1   
    47    20    51 1   
    48    20    52 1   
    49    21    22 1   
    50    21    53 1   
    51    21    54 1   
    52    22    23 1   
    53    22    55 1   
    54    22    56 1   
    55    23    24 1   
    56    23    57 1   
    57    23    58 1   
    58    24    25 1   
    59    24    59 1   
    60    24    60 1   
    61    25    61 1   
    62    25    62 1   
    63    26    63 1   
    64    27    28 1   
    65    27    64 1   
    66    31    33 2   
    67    32    33 2   
@<TRIPOS>SUBSTRUCTURE
     1 KXK         1 TEMP              0 ****  ****    0 ROOT
