@<TRIPOS>MOLECULE
KXL
   58    59     1     0     0
SMALL
No Charge or Current Charge


@<TRIPOS>ATOM
      1 O1           0.0430    -4.4810    23.2310 o          1 KXL      -0.633100
      2 O2           0.3850    -7.6290    25.2680 oh         1 KXL      -0.666000
      3 O3           3.5670    -7.7850    23.4800 o          1 KXL      -0.620100
      4 N5           2.7920    -8.8700    25.3240 ns         1 KXL      -0.486900
      5 N8          -0.2520    -3.4780    28.5230 nb         1 KXL      -0.700000
      6 C9           0.4080    -4.7460    24.3680 c          1 KXL       0.609100
      7 C10          1.6250    -5.6200    24.6550 c3         1 KXL      -0.171400
      8 C11          1.3590    -7.1080    24.3250 c3         1 KXL       0.105300
      9 C12          2.6870    -7.9350    24.3190 c          1 KXL       0.586100
     10 C13          3.9470    -9.7660    25.5580 c3         1 KXL       0.041700
     11 C14          5.0970    -8.9840    26.2490 c3         1 KXL      -0.049100
     12 C15          6.4370    -9.7050    26.2110 ca         1 KXL      -0.087300
     13 C16          6.8920   -10.4250    27.3330 ca         1 KXL      -0.105000
     14 C17          8.1240   -11.1000    27.2890 ca         1 KXL      -0.114000
     15 C18          8.9100   -11.0550    26.1250 ca         1 KXL      -0.111000
     16 C19          8.4640   -10.3320    25.0050 ca         1 KXL      -0.114000
     17 C20          7.2310    -9.6580    25.0490 ca         1 KXL      -0.105000
     18 C21          3.4900   -10.9990    26.4070 c          1 KXL       0.599100
     19 C22          5.0150   -12.5780    25.1510 c3         1 KXL       0.081800
     20 C23          3.9430   -13.2930    27.3140 c3         1 KXL       0.081800
     21 C24         -1.3970    -3.3680    25.4410 c3         1 KXL       0.112000
     22 C25         -2.0030    -3.1840    26.8440 c3         1 KXL      -0.152700
     23 C26         -1.0170    -2.5950    27.8390 ca         1 KXL       0.358300
     24 C27         -0.9100    -1.2020    28.0150 ca         1 KXL      -0.161000
     25 C28          0.0200    -0.6950    28.9370 ca         1 KXL      -0.065000
     26 C29          0.8100    -1.6130    29.6480 ca         1 KXL      -0.166000
     27 C30          0.6430    -2.9880    29.4130 ca         1 KXL       0.346900
     28 HO2         -0.5130    -7.4070    24.9320 ho         1 KXL       0.464000
     29 HN5          1.9870    -8.9320    25.9420 hn         1 KXL       0.356500
     30 HN7          0.1440    -4.5070    26.3830 hn         1 KXL       0.339500
     31 H1           1.9210    -5.5360    25.7070 hc         1 KXL       0.080200
     32 H101         2.4450    -5.2680    24.0170 hc         1 KXL       0.080200
     33 H11          0.9670    -7.1790    23.3000 h1         1 KXL       0.079700
     34 H13          4.2960   -10.1210    24.5820 h1         1 KXL       0.087700
     35 H141         5.2140    -8.0110    25.7570 hc         1 KXL       0.066700
     36 H142         4.8080    -8.7580    27.2830 hc         1 KXL       0.066700
     37 H16          6.2880   -10.4710    28.2370 ha         1 KXL       0.119000
     38 H17          8.4690   -11.6600    28.1560 ha         1 KXL       0.113500
     39 H18          9.8630   -11.5780    26.0910 ha         1 KXL       0.113000
     40 H19          9.0720   -10.2960    24.1040 ha         1 KXL       0.113500
     41 H20          6.8900    -9.1040    24.1770 ha         1 KXL       0.119000
     42 H222         5.1430   -13.6670    25.1030 h1         1 KXL       0.045033
     43 H223         4.4920   -12.2590    24.2410 h1         1 KXL       0.045033
     44 H221         6.0070   -12.1170    25.1850 h1         1 KXL       0.045033
     45 H233         3.8400   -12.8810    28.3260 h1         1 KXL       0.045033
     46 H232         3.0110   -13.7980    27.0320 h1         1 KXL       0.045033
     47 H231         4.7620   -14.0240    27.3190 h1         1 KXL       0.045033
     48 H241        -1.0940    -2.3930    25.0370 h1         1 KXL       0.057200
     49 H242        -2.1530    -3.7990    24.7700 h1         1 KXL       0.057200
     50 H251        -2.8830    -2.5350    26.7640 hc         1 KXL       0.063200
     51 H252        -2.3730    -4.1520    27.2040 hc         1 KXL       0.063200
     52 H27         -1.5390    -0.5270    27.4420 ha         1 KXL       0.124000
     53 H28          0.1260     0.3760    29.0960 ha         1 KXL       0.121000
     54 H29          1.5430    -1.2710    30.3730 ha         1 KXL       0.126000
     55 H30          1.2440    -3.7200    29.9500 h4         1 KXL       0.018100
     56 N6           4.2330   -12.2050    26.3530 n          1 KXL      -0.394800
     57 O4           2.5260   -10.9080    27.1630 o          1 KXL      -0.620100
     58 N7          -0.2310    -4.2470    25.4760 ns         1 KXL      -0.497900
@<TRIPOS>BOND
     1     1     6 2   
     2     2     8 1   
     3     2    28 1   
     4     3     9 2   
     5     4     9 1   
     6     4    10 1   
     7     4    29 1   
     8     5    23 ar  
     9     5    27 ar  
    10     6     7 1   
    11     6    58 1   
    12     7     8 1   
    13     7    31 1   
    14     7    32 1   
    15     8     9 1   
    16     8    33 1   
    17    10    11 1   
    18    10    18 1   
    19    10    34 1   
    20    11    12 1   
    21    11    35 1   
    22    11    36 1   
    23    12    13 ar  
    24    12    17 ar  
    25    13    14 ar  
    26    13    37 1   
    27    14    15 ar  
    28    14    38 1   
    29    15    16 ar  
    30    15    39 1   
    31    16    17 ar  
    32    16    40 1   
    33    17    41 1   
    34    18    56 1   
    35    18    57 2   
    36    19    42 1   
    37    19    43 1   
    38    19    44 1   
    39    19    56 1   
    40    20    45 1   
    41    20    46 1   
    42    20    47 1   
    43    20    56 1   
    44    21    22 1   
    45    21    48 1   
    46    21    49 1   
    47    21    58 1   
    48    22    23 1   
    49    22    50 1   
    50    22    51 1   
    51    23    24 ar  
    52    24    25 ar  
    53    24    52 1   
    54    25    26 ar  
    55    25    53 1   
    56    26    27 ar  
    57    26    54 1   
    58    27    55 1   
    59    30    58 1   
@<TRIPOS>SUBSTRUCTURE
     1 KXL         1 TEMP              0 ****  ****    0 ROOT
