@<TRIPOS>MOLECULE
KXL
   58    59     1     0     0
SMALL
abcg2


@<TRIPOS>ATOM
      1 O1          -0.9540    -5.7480    24.1020 o          1 KXL      -0.633100
      2 O2           0.4760    -7.8590    26.0090 oh         1 KXL      -0.666000
      3 O3           3.3450    -7.7900    23.9050 o          1 KXL      -0.620100
      4 N5           2.7350    -9.1450    25.6110 ns         1 KXL      -0.486900
      5 N8           0.4910    -2.1690    27.4000 nb         1 KXL      -0.700000
      6 C9          -0.0150    -5.2550    24.7140 c          1 KXL       0.609100
      7 C10          1.3270    -5.9540    24.8150 c3         1 KXL      -0.171400
      8 C11          1.1660    -7.4650    24.8460 c3         1 KXL       0.105300
      9 C12          2.5320    -8.1430    24.7490 c          1 KXL       0.586100
     10 C13          3.9640    -9.8950    25.6610 c3         1 KXL       0.041700
     11 C14          4.9820    -9.2200    26.6060 c3         1 KXL      -0.049100
     12 C15          6.3210    -9.9000    26.6050 ca         1 KXL      -0.087300
     13 C16          6.6190   -10.9020    27.5250 ca         1 KXL      -0.105000
     14 C17          7.8380   -11.5660    27.4810 ca         1 KXL      -0.114000
     15 C18          8.7810   -11.2290    26.5180 ca         1 KXL      -0.111000
     16 C19          8.4970   -10.2230    25.6030 ca         1 KXL      -0.114000
     17 C20          7.2760    -9.5660    25.6480 ca         1 KXL      -0.105000
     18 C21          3.6340   -11.2910    26.1870 c          1 KXL       0.599100
     19 C22          5.2830   -12.3460    24.6400 c3         1 KXL       0.081800
     20 C23          4.1120   -13.6590    26.3020 c3         1 KXL       0.081800
     21 C24         -1.1940    -3.1670    25.3130 c3         1 KXL       0.112000
     22 C25         -1.7280    -2.8920    26.7150 c3         1 KXL      -0.152700
     23 C26         -0.8240    -2.0530    27.5780 ca         1 KXL       0.358300
     24 C27         -1.3560    -1.1920    28.5360 ca         1 KXL      -0.161000
     25 C28         -0.4990    -0.4440    29.3250 ca         1 KXL      -0.065000
     26 C29          0.8700    -0.5720    29.1360 ca         1 KXL      -0.166000
     27 C30          1.3100    -1.4480    28.1590 ca         1 KXL       0.346900
     28 HO2         -0.3700    -8.2390    25.7580 ho         1 KXL       0.464000
     29 HN5          2.0340    -9.3250    26.3150 hn         1 KXL       0.356500
     30 HN7          0.7410    -3.7320    25.8400 hn         1 KXL       0.339500
     31 H1           1.8780    -5.6150    25.6960 hc         1 KXL       0.080200
     32 H101         1.9190    -5.6650    23.9440 hc         1 KXL       0.080200
     33 H11          0.6230    -7.7750    23.9450 h1         1 KXL       0.079700
     34 H13          4.3800    -9.9090    24.6560 h1         1 KXL       0.087700
     35 H141         5.0930    -8.1840    26.2790 hc         1 KXL       0.066700
     36 H142         4.5610    -9.1980    27.6140 hc         1 KXL       0.066700
     37 H16          5.8890   -11.1680    28.2810 ha         1 KXL       0.119000
     38 H17          8.0540   -12.3430    28.2030 ha         1 KXL       0.113500
     39 H18          9.7320   -11.7440    26.4840 ha         1 KXL       0.113000
     40 H19          9.2290    -9.9500    24.8530 ha         1 KXL       0.113500
     41 H20          7.0600    -8.7830    24.9290 ha         1 KXL       0.119000
     42 H222         5.1080   -13.1940    23.9770 h1         1 KXL       0.045033
     43 H223         5.2470   -11.4480    24.0350 h1         1 KXL       0.045033
     44 H221         6.2880   -12.4400    25.0580 h1         1 KXL       0.045033
     45 H233         3.3450   -13.6290    27.0670 h1         1 KXL       0.045033
     46 H232         3.8290   -14.3920    25.5460 h1         1 KXL       0.045033
     47 H231         5.0510   -13.9840    26.7560 h1         1 KXL       0.045033
     48 H241        -0.9260    -2.2250    24.8280 h1         1 KXL       0.057200
     49 H242        -1.9820    -3.6190    24.7140 h1         1 KXL       0.057200
     50 H251        -2.6960    -2.3940    26.6280 hc         1 KXL       0.063200
     51 H252        -1.9240    -3.8450    27.2170 hc         1 KXL       0.063200
     52 H27         -2.4290    -1.1090    28.6520 ha         1 KXL       0.124000
     53 H28         -0.8930     0.2320    30.0730 ha         1 KXL       0.121000
     54 H29          1.5780    -0.0080    29.7260 ha         1 KXL       0.126000
     55 H30          2.3710    -1.5770    27.9750 h4         1 KXL       0.018100
     56 N6           4.2820   -12.3570    25.6860 n          1 KXL      -0.394800
     57 O4           2.8060   -11.3790    27.0880 o          1 KXL      -0.620100
     58 N7          -0.0540    -4.0540    25.3060 ns         1 KXL      -0.497900
@<TRIPOS>BOND
     1     1     6 2   
     2     2     8 1   
     3     2    28 1   
     4     3     9 2   
     5     4     9 1   
     6     4    10 1   
     7     4    29 1   
     8     5    23 ar  
     9     5    27 ar  
    10     6     7 1   
    11     6    58 1   
    12     7     8 1   
    13     7    31 1   
    14     7    32 1   
    15     8     9 1   
    16     8    33 1   
    17    10    11 1   
    18    10    18 1   
    19    10    34 1   
    20    11    12 1   
    21    11    35 1   
    22    11    36 1   
    23    12    13 ar  
    24    12    17 ar  
    25    13    14 ar  
    26    13    37 1   
    27    14    15 ar  
    28    14    38 1   
    29    15    16 ar  
    30    15    39 1   
    31    16    17 ar  
    32    16    40 1   
    33    17    41 1   
    34    18    56 1   
    35    18    57 2   
    36    19    42 1   
    37    19    43 1   
    38    19    44 1   
    39    19    56 1   
    40    20    45 1   
    41    20    46 1   
    42    20    47 1   
    43    20    56 1   
    44    21    22 1   
    45    21    48 1   
    46    21    49 1   
    47    21    58 1   
    48    22    23 1   
    49    22    50 1   
    50    22    51 1   
    51    23    24 ar  
    52    24    25 ar  
    53    24    52 1   
    54    25    26 ar  
    55    25    53 1   
    56    26    27 ar  
    57    26    54 1   
    58    27    55 1   
    59    30    58 1   
@<TRIPOS>SUBSTRUCTURE
     1 KXL         1 TEMP              0 ****  ****    0 ROOT
