@<TRIPOS>MOLECULE
KXN
   35    37     1     0     0
SMALL
No Charge or Current Charge


@<TRIPOS>ATOM
      1 O94         -2.4200     8.2590    15.7210 oh         1 KXN      -0.532100
      2 C94         -2.2900     7.0490    15.1050 ca         1 KXN       0.132100
      3 C93         -1.1740     6.2390    15.3980 ca         1 KXN       0.040100
      4 O93         -0.2320     6.6710    16.2960 oh         1 KXN      -0.558100
      5 C92         -1.0320     4.9900    14.7680 ca         1 KXN      -0.136000
      6 C95         -3.2560     6.6150    14.1850 ca         1 KXN      -0.127000
      7 C96         -3.1120     5.3660    13.5540 ca         1 KXN      -0.089000
      8 C91         -2.0020     4.5460    13.8420 ca         1 KXN      -0.102300
      9 C2          -1.8550     3.1820    13.1510 c6         1 KXN       0.185600
     10 O1          -0.6140     3.1830    12.4120 os         1 KXN      -0.336100
     11 C3          -1.9000     1.9850    14.1420 c6         1 KXN       0.145300
     12 O3          -3.1150     1.9720    14.9120 oh         1 KXN      -0.650000
     13 C4          -1.7640     0.6710    13.3420 c6         1 KXN      -0.007100
     14 C10         -0.6590     0.7500    12.2750 ca         1 KXN      -0.229300
     15 C9          -0.1440     2.0030    11.8740 ca         1 KXN       0.205100
     16 C8           0.8820     2.0740    10.9240 ca         1 KXN      -0.215000
     17 C5          -0.1440    -0.4190    11.6810 ca         1 KXN       0.214100
     18 O51         -0.6260    -1.6420    12.0280 oh         1 KXN      -0.530100
     19 C6           0.8740    -0.3420    10.7230 ca         1 KXN      -0.337000
     20 C7           1.3870     0.9040    10.3510 ca         1 KXN       0.208100
     21 O71          2.3780     0.9790     9.4250 oh         1 KXN      -0.528100
     22 HO94        -1.6360     8.3440    16.3090 ho         1 KXN       0.484000
     23 HO93         0.4740     5.9910    16.3730 ho         1 KXN       0.477000
     24 H92         -0.1700     4.3640    14.9860 ha         1 KXN       0.125000
     25 H95         -4.1140     7.2440    13.9600 ha         1 KXN       0.135000
     26 H96         -3.8660     5.0380    12.8410 ha         1 KXN       0.124000
     27 H2          -2.6720     3.0570    12.4260 h1         1 KXN       0.067700
     28 H3          -1.0340     2.0670    14.8160 h1         1 KXN       0.043700
     29 HO3         -3.1610     2.8360    15.3790 ho         1 KXN       0.452000
     30 H4          -1.5680    -0.1530    14.0410 hc         1 KXN       0.070200
     31 H4A         -2.7170     0.4380    12.8480 hc         1 KXN       0.070200
     32 H8           1.2800     3.0400    10.6290 ha         1 KXN       0.147000
     33 HO51        -0.1410    -2.3140    11.5050 ho         1 KXN       0.466000
     34 H6           1.2680    -1.2490    10.2710 ha         1 KXN       0.116000
     35 HO71         2.5940     0.0650     9.1440 ho         1 KXN       0.466000
@<TRIPOS>BOND
     1     1     2 1   
     2     1    22 1   
     3     2     3 ar  
     4     2     6 ar  
     5     3     4 1   
     6     3     5 ar  
     7     4    23 1   
     8     5     8 ar  
     9     5    24 1   
    10     6     7 ar  
    11     6    25 1   
    12     7     8 ar  
    13     7    26 1   
    14     8     9 1   
    15     9    10 1   
    16     9    11 1   
    17     9    27 1   
    18    10    15 1   
    19    11    12 1   
    20    11    13 1   
    21    11    28 1   
    22    12    29 1   
    23    13    14 1   
    24    13    30 1   
    25    13    31 1   
    26    14    15 ar  
    27    14    17 ar  
    28    15    16 ar  
    29    16    20 ar  
    30    16    32 1   
    31    17    18 1   
    32    17    19 ar  
    33    18    33 1   
    34    19    20 ar  
    35    19    34 1   
    36    20    21 1   
    37    21    35 1   
@<TRIPOS>SUBSTRUCTURE
     1 KXN         1 TEMP              0 ****  ****    0 ROOT
