@<TRIPOS>MOLECULE
KXN
   35    37     1     0     0
SMALL
bcc


@<TRIPOS>ATOM
      1 O94         -2.5070     8.0810    15.8280 oh         1 KXN      -0.493100
      2 C94         -2.3070     6.9230    15.1660 ca         1 KXN       0.132100
      3 C93         -1.0910     6.2260    15.2550 ca         1 KXN       0.040100
      4 O93         -0.1440     6.7880    16.0390 oh         1 KXN      -0.519100
      5 C92         -0.9200     5.0390    14.5670 ca         1 KXN      -0.154000
      6 C95         -3.3210     6.4090    14.3770 ca         1 KXN      -0.145000
      7 C96         -3.1410     5.2180    13.6810 ca         1 KXN      -0.107000
      8 C91         -1.9430     4.5250    13.7690 ca         1 KXN      -0.102300
      9 C2          -1.7840     3.2010    13.0820 c6         1 KXN       0.162400
     10 O1          -0.5030     3.1690    12.4680 os         1 KXN      -0.312900
     11 C3          -1.9160     2.0270    14.0610 c6         1 KXN       0.122100
     12 O3          -3.1480     2.0580    14.7320 oh         1 KXN      -0.587800
     13 C4          -1.8290     0.7280    13.2830 c6         1 KXN      -0.007100
     14 C10         -0.7050     0.7850    12.2860 ca         1 KXN      -0.229300
     15 C9          -0.0940     1.9900    11.9470 ca         1 KXN       0.205100
     16 C8           0.9770     2.0570    11.0600 ca         1 KXN      -0.233000
     17 C5          -0.2200    -0.3710    11.6690 ca         1 KXN       0.214100
     18 O51         -0.8370    -1.5250    11.9870 oh         1 KXN      -0.491100
     19 C6           0.8450    -0.3360    10.7770 ca         1 KXN      -0.355000
     20 C7           1.4450     0.8860    10.4840 ca         1 KXN       0.208100
     21 O71          2.4820     0.9820     9.6300 oh         1 KXN      -0.489100
     22 HO94        -1.7320     8.3100    16.3530 ho         1 KXN       0.445000
     23 HO93         0.6580     6.2530    16.0490 ho         1 KXN       0.438000
     24 H92          0.0250     4.5140    14.6510 ha         1 KXN       0.143000
     25 H95         -4.2580     6.9470    14.3070 ha         1 KXN       0.153000
     26 H96         -3.9440     4.8370    13.0630 ha         1 KXN       0.142000
     27 H2          -2.5610     3.0950    12.3120 h1         1 KXN       0.067700
     28 H3          -1.0740     2.0870    14.7670 h1         1 KXN       0.043700
     29 HO3         -3.1710     2.8390    15.2950 ho         1 KXN       0.413000
     30 H4          -1.6890    -0.1060    13.9750 hc         1 KXN       0.070200
     31 H4A         -2.7850     0.5560    12.7750 hc         1 KXN       0.070200
     32 H8           1.4300     3.0110    10.8230 ha         1 KXN       0.165000
     33 HO51        -0.4310    -2.2650    11.5210 ho         1 KXN       0.427000
     34 H6           1.2020    -1.2510    10.3140 ha         1 KXN       0.134000
     35 HO71         2.7100     0.1140     9.2800 ho         1 KXN       0.427000
@<TRIPOS>BOND
     1     1     2 1   
     2     1    22 1   
     3     2     3 ar  
     4     2     6 ar  
     5     3     4 1   
     6     3     5 ar  
     7     4    23 1   
     8     5     8 ar  
     9     5    24 1   
    10     6     7 ar  
    11     6    25 1   
    12     7     8 ar  
    13     7    26 1   
    14     8     9 1   
    15     9    10 1   
    16     9    11 1   
    17     9    27 1   
    18    10    15 1   
    19    11    12 1   
    20    11    13 1   
    21    11    28 1   
    22    12    29 1   
    23    13    14 1   
    24    13    30 1   
    25    13    31 1   
    26    14    15 ar  
    27    14    17 ar  
    28    15    16 ar  
    29    16    20 ar  
    30    16    32 1   
    31    17    18 1   
    32    17    19 ar  
    33    18    33 1   
    34    19    20 ar  
    35    19    34 1   
    36    20    21 1   
    37    21    35 1   
@<TRIPOS>SUBSTRUCTURE
     1 KXN         1 TEMP              0 ****  ****    0 ROOT
