@<TRIPOS>MOLECULE
KXO
   46    48     1     0     0
SMALL
No Charge or Current Charge


@<TRIPOS>ATOM
      1 C4           2.3360     2.6020    -0.5160 ca         1 KXO      -0.021000
      2 C5           3.5790     1.9620    -0.6210 ca         1 KXO      -0.160000
      3 C6           5.0770    -1.5480    -0.2770 ca         1 KXO      -0.110000
      4 C7           1.4720     0.5540     0.4170 ca         1 KXO       0.367900
      5 C8          -3.2060     1.3590     1.9710 c6         1 KXO      -0.093400
      6 C10         -3.4440    -0.1000     1.5140 c6         1 KXO       0.183800
      7 C13          5.0350    -0.1240    -0.2770 cp         1 KXO      -0.127500
      8 C15          1.2490     1.8840     0.0210 ca         1 KXO      -0.205600
      9 C17         -2.5050     2.2040     0.8820 c6         1 KXO       0.120700
     10 C1           7.4990    -0.1390    -0.4340 ca         1 KXO      -0.093000
     11 C2           6.2810     0.5600    -0.3530 ca         1 KXO      -0.108000
     12 C3           7.5060    -1.5430    -0.4390 ca         1 KXO      -0.136000
     13 C9          -3.3130     2.0840    -0.4330 c6         1 KXO      -0.093400
     14 C11         -3.5390     0.6090    -0.8410 c6         1 KXO       0.183800
     15 C14          6.2940    -2.2410    -0.3590 ca         1 KXO       0.161000
     16 C16          3.7260     0.6210    -0.1900 cp         1 KXO       0.428500
     17 C18         -0.1010     2.5310     0.1520 c          1 KXO       0.615700
     18 C19         -5.5300    -1.7880    -1.3360 c3         1 KXO       0.297000
     19 N20          2.6710    -0.0600     0.3120 nb         1 KXO      -0.683000
     20 N21         -1.1120     1.7680     0.6940 ns         1 KXO      -0.505900
     21 N22         -4.2190    -0.1580     0.2440 n3         1 KXO      -0.744600
     22 O23         -0.3000     3.6830    -0.2050 o          1 KXO      -0.601100
     23 F24          6.2980    -3.5920    -0.3610 f          1 KXO      -0.178000
     24 F25         -6.5590    -0.9090    -1.3110 f          1 KXO      -0.115667
     25 F26         -4.8910    -1.6540    -2.5230 f          1 KXO      -0.115667
     26 F27         -6.0540    -3.0340    -1.2970 f          1 KXO      -0.115667
     27 H4           2.2220     3.6330    -0.8480 ha         1 KXO       0.142000
     28 H5           4.4180     2.5000    -1.0490 ha         1 KXO       0.129000
     29 H6           4.1570    -2.1250    -0.2210 ha         1 KXO       0.154000
     30 H7           0.6740    -0.0590     0.8340 h4         1 KXO       0.017100
     31 H8          -4.1730     1.8170     2.2200 hc         1 KXO       0.064950
     32 H8A         -2.6150     1.3700     2.8970 hc         1 KXO       0.064950
     33 H10         -2.4750    -0.6070     1.3920 h1         1 KXO       0.034450
     34 H10A        -3.9840    -0.6300     2.3110 h1         1 KXO       0.034450
     35 H17         -2.4950     3.2570     1.2030 h1         1 KXO       0.075700
     36 H1           8.4380     0.4090    -0.4890 ha         1 KXO       0.120000
     37 H2           6.3160     1.6460    -0.3340 ha         1 KXO       0.116000
     38 H3           8.4450    -2.0870    -0.5010 ha         1 KXO       0.134000
     39 H9          -4.2880     2.5730    -0.3070 hc         1 KXO       0.064950
     40 H9A         -2.8030     2.6200    -1.2430 hc         1 KXO       0.064950
     41 H11         -4.1450     0.6060    -1.7570 h1         1 KXO       0.034450
     42 H11A        -2.5720     0.1460    -1.0900 h1         1 KXO       0.034450
     43 H12         -5.0140    -2.0700     0.7300 h1         1 KXO       0.069200
     44 H12A        -3.6340    -2.1240    -0.3530 h1         1 KXO       0.069200
     45 HN21        -0.8730     0.8260     0.9720 hn         1 KXO       0.314500
     46 C12         -4.5580    -1.5700    -0.1350 c3         1 KXO       0.112800
@<TRIPOS>BOND
     1     1     2 ar  
     2     1     8 ar  
     3     1    27 1   
     4     2    16 ar  
     5     2    28 1   
     6     3     7 ar  
     7     3    15 ar  
     8     3    29 1   
     9     4     8 ar  
    10     4    19 ar  
    11     4    30 1   
    12     5     6 1   
    13     5     9 1   
    14     5    31 1   
    15     5    32 1   
    16     6    21 1   
    17     6    33 1   
    18     6    34 1   
    19     7    11 ar  
    20     7    16 1   
    21     8    17 1   
    22     9    13 1   
    23     9    20 1   
    24     9    35 1   
    25    10    11 ar  
    26    10    12 ar  
    27    10    36 1   
    28    11    37 1   
    29    12    15 ar  
    30    12    38 1   
    31    13    14 1   
    32    13    39 1   
    33    13    40 1   
    34    14    21 1   
    35    14    41 1   
    36    14    42 1   
    37    15    23 1   
    38    16    19 ar  
    39    17    20 1   
    40    17    22 2   
    41    18    24 1   
    42    18    25 1   
    43    18    26 1   
    44    18    46 1   
    45    20    45 1   
    46    21    46 1   
    47    43    46 1   
    48    44    46 1   
@<TRIPOS>SUBSTRUCTURE
     1 KXO         1 TEMP              0 ****  ****    0 ROOT
