@<TRIPOS>MOLECULE
KXO
   46    48     1     0     0
SMALL
bcc


@<TRIPOS>ATOM
      1 C4           2.3970     2.5990    -0.0910 ca         1 KXO      -0.039000
      2 C5           3.6450     2.0120    -0.1260 ca         1 KXO      -0.243300
      3 C6           5.0710    -1.4780    -0.2020 ca         1 KXO      -0.128000
      4 C7           1.4620     0.4220    -0.1670 ca         1 KXO       0.433200
      5 C8          -3.1650     1.3350     1.6840 c6         1 KXO      -0.093400
      6 C10         -3.3780    -0.1170     1.2830 c6         1 KXO       0.183800
      7 C13          5.0480    -0.0820    -0.2140 cp         1 KXO      -0.127500
      8 C15          1.2630     1.7960    -0.0880 ca         1 KXO      -0.270900
      9 C17         -2.4430     2.1370     0.6070 c6         1 KXO       0.120700
     10 C1           7.4640    -0.0810    -0.2720 ca         1 KXO      -0.111000
     11 C2           6.2610     0.6070    -0.2520 ca         1 KXO      -0.126000
     12 C3           7.4910    -1.4670    -0.2560 ca         1 KXO      -0.154000
     13 C9          -3.1600     1.9460    -0.7280 c6         1 KXO      -0.093400
     14 C11         -3.3510     0.4770    -1.0610 c6         1 KXO       0.183800
     15 C14          6.2820    -2.1320    -0.2240 ca         1 KXO       0.125900
     16 C16          3.7460     0.6210    -0.1840 cp         1 KXO       0.493800
     17 C18         -0.0870     2.4210    -0.0580 c          1 KXO       0.682700
     18 C19         -5.9730    -1.5990    -0.5210 c3         1 KXO       0.660900
     19 N20          2.6540    -0.1420    -0.2160 nb         1 KXO      -0.683000
     20 N21         -1.0520     1.7080     0.5370 ns         1 KXO      -0.572900
     21 N22         -4.0560    -0.2080     0.0060 n3         1 KXO      -0.744600
     22 O23         -0.2770     3.5300    -0.5460 o          1 KXO      -0.601100
     23 F24          6.2820    -3.4760    -0.2110 f          1 KXO      -0.142900
     24 F25         -6.6230    -1.2840     0.6060 f          1 KXO      -0.236967
     25 F26         -6.4000    -0.7520    -1.4670 f          1 KXO      -0.236967
     26 F27         -6.3750    -2.8270    -0.8810 f          1 KXO      -0.236967
     27 H4           2.3110     3.6750    -0.0520 ha         1 KXO       0.160000
     28 H5           4.5180     2.6450    -0.1060 ha         1 KXO       0.147000
     29 H6           4.1510    -2.0450    -0.1750 ha         1 KXO       0.172000
     30 H7           0.6220    -0.2630    -0.2250 h4         1 KXO       0.017100
     31 H8          -4.1370     1.8000     1.8570 hc         1 KXO       0.064950
     32 H8A         -2.6210     1.3790     2.6300 hc         1 KXO       0.064950
     33 H10         -2.4200    -0.6680     1.2780 h1         1 KXO       0.034450
     34 H10A        -3.9880    -0.6000     2.0470 h1         1 KXO       0.034450
     35 H17         -2.4600     3.1930     0.8810 h1         1 KXO       0.075700
     36 H1           8.3930     0.4700    -0.2990 ha         1 KXO       0.138000
     37 H2           6.2930     1.6860    -0.2690 ha         1 KXO       0.134000
     38 H3           8.4240    -2.0120    -0.2700 ha         1 KXO       0.152000
     39 H9          -4.1370     2.4320    -0.6620 hc         1 KXO       0.064950
     40 H9A         -2.6160     2.4380    -1.5340 hc         1 KXO       0.064950
     41 H11         -3.9310     0.3990    -1.9810 h1         1 KXO       0.034450
     42 H11A        -2.3730     0.0090    -1.2720 h1         1 KXO       0.034450
     43 H12         -4.2000    -2.2640     0.4370 h1         1 KXO       0.069200
     44 H12A        -3.9970    -1.8990    -1.2620 h1         1 KXO       0.069200
     45 HN21        -0.7930     0.8660     1.0230 hn         1 KXO       0.314500
     46 C12         -4.4730    -1.5440    -0.3410 c3         1 KXO       0.112800
@<TRIPOS>BOND
     1     1     2 ar  
     2     1     8 ar  
     3     1    27 1   
     4     2    16 ar  
     5     2    28 1   
     6     3     7 ar  
     7     3    15 ar  
     8     3    29 1   
     9     4     8 ar  
    10     4    19 ar  
    11     4    30 1   
    12     5     6 1   
    13     5     9 1   
    14     5    31 1   
    15     5    32 1   
    16     6    21 1   
    17     6    33 1   
    18     6    34 1   
    19     7    11 ar  
    20     7    16 1   
    21     8    17 1   
    22     9    13 1   
    23     9    20 1   
    24     9    35 1   
    25    10    11 ar  
    26    10    12 ar  
    27    10    36 1   
    28    11    37 1   
    29    12    15 ar  
    30    12    38 1   
    31    13    14 1   
    32    13    39 1   
    33    13    40 1   
    34    14    21 1   
    35    14    41 1   
    36    14    42 1   
    37    15    23 1   
    38    16    19 ar  
    39    17    20 1   
    40    17    22 2   
    41    18    24 1   
    42    18    25 1   
    43    18    26 1   
    44    18    46 1   
    45    20    45 1   
    46    21    46 1   
    47    43    46 1   
    48    44    46 1   
@<TRIPOS>SUBSTRUCTURE
     1 KXO         1 TEMP              0 ****  ****    0 ROOT
