@<TRIPOS>MOLECULE
KXQ
   18    19     1     0     0
SMALL
bcc


@<TRIPOS>ATOM
      1 N           39.5100    15.0160    90.8080 na         1 KXQ      -0.144400
      2 C           37.9370    13.7840    88.4480 c          1 KXQ       0.933200
      3 O           39.1790    13.6250    88.4540 o          1 KXQ      -0.835800
      4 O1          37.1380    13.3510    87.5990 o          1 KXQ      -0.835800
      5 C1          37.3590    14.5880    89.5990 ca         1 KXQ      -0.139600
      6 C8          36.0020    14.8550    89.7010 ca         1 KXQ      -0.112000
      7 C7          35.4600    15.5940    90.7630 ca         1 KXQ      -0.177000
      8 C6          36.2660    16.0940    91.7680 ca         1 KXQ      -0.117000
      9 C5          37.6420    15.8500    91.7090 ca         1 KXQ      -0.128800
     10 C2          38.1640    15.1040    90.6240 ca         1 KXQ      -0.021200
     11 C4          38.7510    16.1970    92.5430 cc         1 KXQ      -0.227200
     12 C3          39.8630    15.6670    91.9530 cd         1 KXQ      -0.139100
     13 H1          40.1100    14.5300    90.1600 hn         1 KXQ       0.337700
     14 H3          35.3430    14.4760    88.9320 ha         1 KXQ       0.139000
     15 H4          34.3930    15.7740    90.7920 ha         1 KXQ       0.100000
     16 H5          35.8400    16.6620    92.5860 ha         1 KXQ       0.101000
     17 H6          38.7250    16.7660    93.4600 ha         1 KXQ       0.128000
     18 H7          40.8940    15.7050    92.2680 h4         1 KXQ       0.138000
@<TRIPOS>BOND
     1     1    10 1   
     2     1    12 1   
     3     1    13 1   
     4     2     3 1   
     5     2     4 1   
     6     2     5 1   
     7     5     6 ar  
     8     5    10 ar  
     9     6     7 ar  
    10     6    14 1   
    11     7     8 ar  
    12     7    15 1   
    13     8     9 ar  
    14     8    16 1   
    15     9    10 ar  
    16     9    11 1   
    17    11    12 2   
    18    11    17 1   
    19    12    18 1   
@<TRIPOS>SUBSTRUCTURE
     1 KXQ         1 TEMP              0 ****  ****    0 ROOT
