@<TRIPOS>MOLECULE
KXQ
   18    19     1     0     0
SMALL
No Charge or Current Charge


@<TRIPOS>ATOM
      1 N           39.5530    14.9960    90.7910 na         1 KXQ      -0.194700
      2 C           37.9340    13.7800    88.4360 c          1 KXQ       0.722600
      3 O           39.1390    13.5690    88.3860 o          1 KXQ      -0.730500
      4 O1          37.1600    13.3670    87.5830 o          1 KXQ      -0.730500
      5 C1          37.3670    14.5850    89.6000 ca         1 KXQ      -0.139600
      6 C8          35.9720    14.8510    89.6920 ca         1 KXQ      -0.094000
      7 C7          35.4370    15.5970    90.7680 ca         1 KXQ      -0.159000
      8 C6          36.2800    16.0970    91.7790 ca         1 KXQ      -0.099000
      9 C5          37.6470    15.8270    91.6730 ca         1 KXQ      -0.128800
     10 C2          38.1780    15.1060    90.6370 ca         1 KXQ      -0.021200
     11 C4          38.7240    16.2010    92.5360 cc         1 KXQ      -0.277200
     12 C3          39.8870    15.6840    91.9830 cd         1 KXQ      -0.189100
     13 H1          40.1810    14.5090    90.1550 hn         1 KXQ       0.388000
     14 H3          35.2950    14.4780    88.9260 ha         1 KXQ       0.121000
     15 H4          34.3670    15.7860    90.8150 ha         1 KXQ       0.082000
     16 H5          35.8810    16.6720    92.6110 ha         1 KXQ       0.083000
     17 H6          38.6620    16.7800    93.4560 ha         1 KXQ       0.178000
     18 H7          40.9130    15.7520    92.3400 h4         1 KXQ       0.188000
@<TRIPOS>BOND
     1     1    10 1   
     2     1    12 1   
     3     1    13 1   
     4     2     3 1   
     5     2     4 1   
     6     2     5 1   
     7     5     6 ar  
     8     5    10 ar  
     9     6     7 ar  
    10     6    14 1   
    11     7     8 ar  
    12     7    15 1   
    13     8     9 ar  
    14     8    16 1   
    15     9    10 ar  
    16     9    11 1   
    17    11    12 2   
    18    11    17 1   
    19    12    18 1   
@<TRIPOS>SUBSTRUCTURE
     1 KXQ         1 TEMP              0 ****  ****    0 ROOT
