@<TRIPOS>MOLECULE
KXR
   36    38     1     0     0
SMALL
abcg2


@<TRIPOS>ATOM
      1 N1           6.5370     0.9450    17.3210 nb         1 KXR      -0.167500
      2 N3          12.6300     4.2220    21.4390 ns         1 KXR      -0.554900
      3 C4           8.0940    -0.5140    20.4210 c3         1 KXR      -0.099100
      4 C5           7.2280     0.3110    19.5210 ca         1 KXR      -0.187300
      5 C6           7.2850     0.1970    18.1370 ca         1 KXR       0.124400
      6 C7           5.7210     1.8210    17.9030 ca         1 KXR       0.121900
      7 C8           6.3300     1.2540    20.0120 ca         1 KXR       0.124400
      8 C10         13.2260     1.3680    22.6390 ca         1 KXR       0.192100
      9 C13         13.1680     5.4470    21.7000 c          1 KXR       0.573000
     10 N           10.3600    -0.5450    21.2610 ns         1 KXR      -0.149000
     11 N2           5.5760     2.0110    19.2140 nb         1 KXR      -0.167500
     12 C1          12.4760    -1.2580    22.0920 ca         1 KXR      -0.244000
     13 C11         12.7950     3.7160    22.7990 cy         1 KXR       0.321700
     14 O1          13.6790     2.6240    22.9300 os         1 KXR      -0.344100
     15 C2          11.6000    -0.2030    21.8200 ca         1 KXR       0.040000
     16 C9          11.9710     1.1170    22.0910 ca         1 KXR      -0.238000
     17 C12         13.4830     5.0520    23.1490 cy         1 KXR      -0.178400
     18 C14         14.1190     0.3340    22.9170 ca         1 KXR      -0.203000
     19 C           13.7080    -0.9510    22.6320 ca         1 KXR       0.231000
     20 C3           9.3110     0.2590    20.9310 c          1 KXR       0.606100
     21 H1          12.1010     3.8770    20.6490 hn         1 KXR       0.341500
     22 H2           7.5320    -0.8240    21.3070 hc         1 KXR       0.071700
     23 H3           8.4140    -1.4240    19.9120 hc         1 KXR       0.071700
     24 H4           7.9520    -0.5220    17.6720 h4         1 KXR       0.026600
     25 H5           5.1130     2.4350    17.2480 h5         1 KXR       0.054100
     26 H6           6.2130     1.3970    21.0810 h4         1 KXR       0.026600
     27 H7          10.2290    -1.5310    21.0910 hn         1 KXR       0.155000
     28 H8          12.2060    -2.2850    21.8870 ha         1 KXR       0.133000
     29 H9          11.8560     3.5080    23.3120 h2         1 KXR       0.074700
     30 H10         11.2780     1.9070    21.8670 ha         1 KXR       0.156000
     31 H11         14.5440     4.9540    23.3700 hc         1 KXR       0.094700
     32 H12         12.9840     5.6580    23.9030 hc         1 KXR       0.094700
     33 H13         15.0920     0.5350    23.3430 ha         1 KXR       0.152000
     34 F           14.5580    -1.9720    22.8980 f          1 KXR      -0.176000
     35 O            9.3050     1.4750    21.0540 o          1 KXR      -0.573100
     36 O2          13.2900     6.4450    21.0240 o          1 KXR      -0.507000
@<TRIPOS>BOND
     1     1     5 ar  
     2     1     6 ar  
     3     2     9 1   
     4     2    13 1   
     5     2    21 1   
     6     3     4 1   
     7     3    20 1   
     8     3    22 1   
     9     3    23 1   
    10     4     5 ar  
    11     4     7 ar  
    12     5    24 1   
    13     6    11 ar  
    14     6    25 1   
    15     7    11 ar  
    16     7    26 1   
    17     8    14 1   
    18     8    16 ar  
    19     8    18 ar  
    20     9    17 1   
    21     9    36 2   
    22    10    15 1   
    23    10    20 1   
    24    10    27 1   
    25    12    15 ar  
    26    12    19 ar  
    27    12    28 1   
    28    13    14 1   
    29    13    17 1   
    30    13    29 1   
    31    15    16 ar  
    32    16    30 1   
    33    17    31 1   
    34    17    32 1   
    35    18    19 ar  
    36    18    33 1   
    37    19    34 1   
    38    20    35 2   
@<TRIPOS>SUBSTRUCTURE
     1 KXR         1 TEMP              0 ****  ****    0 ROOT
