@<TRIPOS>MOLECULE
KXR
   36    38     1     0     0
SMALL
No Charge or Current Charge


@<TRIPOS>ATOM
      1 N1           7.1150    -0.3280    17.3790 nb         1 KXR      -0.167500
      2 N3          12.7810     4.3850    21.8720 ns         1 KXR      -0.554900
      3 C4           7.5490    -0.1200    21.1570 c3         1 KXR      -0.099100
      4 C5           7.0990     0.1920    19.7300 ca         1 KXR      -0.187300
      5 C6           7.5030    -0.6050    18.6400 ca         1 KXR       0.124400
      6 C7           6.3210     0.7520    17.2160 ca         1 KXR       0.121900
      7 C8           6.2710     1.2960    19.4450 ca         1 KXR       0.124400
      8 C10         13.2420     1.4270    22.4270 ca         1 KXR       0.192100
      9 C13         13.4120     5.5200    22.1830 c          1 KXR       0.573000
     10 N            9.9900    -0.2110    21.4280 ns         1 KXR      -0.149000
     11 N2           5.8780     1.5800    18.1860 nb         1 KXR      -0.167500
     12 C1          12.2800    -0.9760    21.3410 ca         1 KXR      -0.244000
     13 C11         13.0250     3.7910    23.1010 cy         1 KXR       0.321700
     14 O1          13.7700     2.5820    22.9660 os         1 KXR      -0.344100
     15 C2          11.3670     0.0430    21.6660 ca         1 KXR       0.040000
     16 C9          11.8570     1.2460    22.2200 ca         1 KXR      -0.238000
     17 C12         13.9070     5.0200    23.6040 cy         1 KXR      -0.178400
     18 C14         14.1340     0.4010    22.0950 ca         1 KXR      -0.203000
     19 C           13.6520    -0.7950    21.5550 ca         1 KXR       0.231000
     20 C3           8.8650     0.6000    21.4930 c          1 KXR       0.606100
     21 H1          11.8820     4.4240    21.4070 hn         1 KXR       0.341500
     22 H2           6.7810     0.2150    21.8640 hc         1 KXR       0.071700
     23 H3           7.6850    -1.2040    21.2600 hc         1 KXR       0.071700
     24 H4           8.1470    -1.4730    18.7750 h4         1 KXR       0.026600
     25 H5           6.0050     0.9780    16.1990 h5         1 KXR       0.054100
     26 H6           5.9190     1.9630    20.2310 h4         1 KXR       0.026600
     27 H7           9.7950    -1.1660    21.1580 hn         1 KXR       0.155000
     28 H8          11.9280    -1.9140    20.9190 ha         1 KXR       0.133000
     29 H9          12.1300     3.5860    23.6980 h2         1 KXR       0.074700
     30 H10         11.1690     2.0330    22.4980 ha         1 KXR       0.156000
     31 H11         14.9910     4.8900    23.6410 hc         1 KXR       0.094700
     32 H12         13.5110     5.6280    24.4210 hc         1 KXR       0.094700
     33 H13         15.2000     0.5320    22.2570 ha         1 KXR       0.152000
     34 F           14.5160    -1.7830    21.2360 f          1 KXR      -0.176000
     35 O            8.8860     1.7950    21.7670 o          1 KXR      -0.573100
     36 O2          13.4010     6.5350    21.5080 o          1 KXR      -0.507000
@<TRIPOS>BOND
     1     1     5 ar  
     2     1     6 ar  
     3     2     9 1   
     4     2    13 1   
     5     2    21 1   
     6     3     4 1   
     7     3    20 1   
     8     3    22 1   
     9     3    23 1   
    10     4     5 ar  
    11     4     7 ar  
    12     5    24 1   
    13     6    11 ar  
    14     6    25 1   
    15     7    11 ar  
    16     7    26 1   
    17     8    14 1   
    18     8    16 ar  
    19     8    18 ar  
    20     9    17 1   
    21     9    36 2   
    22    10    15 1   
    23    10    20 1   
    24    10    27 1   
    25    12    15 ar  
    26    12    19 ar  
    27    12    28 1   
    28    13    14 1   
    29    13    17 1   
    30    13    29 1   
    31    15    16 ar  
    32    16    30 1   
    33    17    31 1   
    34    17    32 1   
    35    18    19 ar  
    36    18    33 1   
    37    19    34 1   
    38    20    35 2   
@<TRIPOS>SUBSTRUCTURE
     1 KXR         1 TEMP              0 ****  ****    0 ROOT
