@<TRIPOS>MOLECULE
KXS
   48    49     1     0     0
SMALL
abcg2


@<TRIPOS>ATOM
      1 C12         -2.5070    -0.7180     0.7220 ca         1 KXS      -0.092500
      2 C14         -4.6660     0.0020    -0.0820 ca         1 KXS       0.125100
      3 C15         -4.0400     0.5740    -1.1910 ca         1 KXS      -0.154000
      4 C16         -2.6660     0.5100    -1.3270 ca         1 KXS      -0.092500
      5 C18         -6.6840    -0.4670     1.0730 c3         1 KXS       0.148900
      6 C01          4.3460    -3.2330     0.4660 c3         1 KXS      -0.086100
      7 C02          3.8490    -1.8920    -0.0570 c6         1 KXS      -0.061700
      8 C03          4.7370    -0.7400     0.4000 c6         1 KXS      -0.074400
      9 C04          4.2310     0.6020    -0.1140 c6         1 KXS      -0.071400
     10 C05          2.7900     0.8810     0.3160 c6         1 KXS      -0.044700
     11 C06          1.8880    -0.2780    -0.1360 c6         1 KXS      -0.134700
     12 C07          2.4100    -1.6290     0.3730 c6         1 KXS      -0.067400
     13 C08          0.4690    -0.1080     0.3690 c          1 KXS       0.605100
     14 C11         -1.8810    -0.1380    -0.3740 ca         1 KXS      -0.069000
     15 C13         -3.8860    -0.6440     0.8730 ca         1 KXS      -0.154000
     16 N10         -0.4910    -0.2150    -0.5810 ns         1 KXS      -0.154000
     17 O09          0.2200     0.0680     1.5510 o          1 KXS      -0.588100
     18 O17         -6.0070     0.1190    -0.0210 os         1 KXS      -0.342100
     19 H121        -1.9340    -1.2460     1.4690 ha         1 KXS       0.123500
     20 H151        -4.6350     1.0760    -1.9430 ha         1 KXS       0.123000
     21 H161        -2.1970     0.9690    -2.1880 ha         1 KXS       0.123500
     22 H182        -7.7420    -0.2610     0.9290 h1         1 KXS       0.040367
     23 H183        -6.5380    -1.5500     1.1110 h1         1 KXS       0.040367
     24 H181        -6.3700    -0.0360     2.0270 h1         1 KXS       0.040367
     25 H201         1.5160     1.7000    -2.1190 hc         1 KXS       0.031533
     26 H203         1.8290     3.4130    -1.9170 hc         1 KXS       0.031533
     27 H202         3.1720     2.2990    -2.1330 hc         1 KXS       0.031533
     28 H011         4.3260    -3.2620     1.5580 hc         1 KXS       0.034033
     29 H012         3.7290    -4.0570     0.1010 hc         1 KXS       0.034033
     30 H013         5.3720    -3.4220     0.1480 hc         1 KXS       0.034033
     31 H021         3.8750    -1.9240    -1.1550 hc         1 KXS       0.042700
     32 H031         4.7670    -0.7260     1.4960 hc         1 KXS       0.041700
     33 H032         5.7650    -0.9040     0.0650 hc         1 KXS       0.041700
     34 H041         4.8880     1.3970     0.2440 hc         1 KXS       0.041200
     35 H042         4.3030     0.6130    -1.2070 hc         1 KXS       0.041200
     36 H051         2.7730     0.8890     1.4140 hc         1 KXS       0.067700
     37 H061         1.8890    -0.3170    -1.2320 hc         1 KXS       0.050700
     38 H071         1.7620    -2.4320     0.0100 hc         1 KXS       0.051700
     39 H072         2.3540    -1.6460     1.4670 hc         1 KXS       0.051700
     40 H131        -4.3300    -1.1090     1.7430 ha         1 KXS       0.123000
     41 H213         3.1430     3.2880     1.5640 hc         1 KXS       0.031533
     42 H212         4.1000     3.4300     0.0910 hc         1 KXS       0.031533
     43 H211         2.6170     4.3590     0.2660 hc         1 KXS       0.031533
     44 H101        -0.1830    -0.2990    -1.5370 hn         1 KXS       0.150000
     45 C19          2.2710     2.2580    -0.1420 c3         1 KXS      -0.061700
     46 C21          3.0800     3.3940     0.4790 c3         1 KXS      -0.085600
     47 C20          2.1960     2.4180    -1.6590 c3         1 KXS      -0.085600
     48 H191         1.2500     2.3620     0.2420 hc         1 KXS       0.054700
@<TRIPOS>BOND
     1     1    14 ar  
     2     1    15 ar  
     3     1    19 1   
     4     2     3 ar  
     5     2    15 ar  
     6     2    18 1   
     7     3     4 ar  
     8     3    20 1   
     9     4    14 ar  
    10     4    21 1   
    11     5    18 1   
    12     5    22 1   
    13     5    23 1   
    14     5    24 1   
    15     6     7 1   
    16     6    28 1   
    17     6    29 1   
    18     6    30 1   
    19     7     8 1   
    20     7    12 1   
    21     7    31 1   
    22     8     9 1   
    23     8    32 1   
    24     8    33 1   
    25     9    10 1   
    26     9    34 1   
    27     9    35 1   
    28    10    11 1   
    29    10    36 1   
    30    10    45 1   
    31    11    12 1   
    32    11    13 1   
    33    11    37 1   
    34    12    38 1   
    35    12    39 1   
    36    13    16 1   
    37    13    17 2   
    38    14    16 1   
    39    15    40 1   
    40    16    44 1   
    41    25    47 1   
    42    26    47 1   
    43    27    47 1   
    44    41    46 1   
    45    42    46 1   
    46    43    46 1   
    47    45    46 1   
    48    45    47 1   
    49    45    48 1   
@<TRIPOS>SUBSTRUCTURE
     1 KXS         1 TEMP              0 ****  ****    0 ROOT
