@<TRIPOS>MOLECULE
KXS
   48    49     1     0     0
SMALL
No Charge or Current Charge


@<TRIPOS>ATOM
      1 C12         -2.6080    -0.1670     0.9440 ca         1 KXS      -0.092500
      2 C14         -4.7190    -0.0740    -0.2840 ca         1 KXS       0.125100
      3 C15         -4.0070    -0.1530    -1.4900 ca         1 KXS      -0.154000
      4 C16         -2.6040    -0.2390    -1.4840 ca         1 KXS      -0.092500
      5 C18         -6.9160     0.0930     0.8290 c3         1 KXS       0.148900
      6 C01          4.7650    -3.2380     0.0570 c3         1 KXS      -0.086100
      7 C02          4.0630    -1.8930    -0.2690 c6         1 KXS      -0.061700
      8 C03          4.9310    -0.6810     0.1610 c6         1 KXS      -0.074400
      9 C04          4.2480     0.6630    -0.1950 c6         1 KXS      -0.071400
     10 C05          2.8370     0.7910     0.4610 c6         1 KXS      -0.044700
     11 C06          1.9670    -0.4560     0.0860 c6         1 KXS      -0.134700
     12 C07          2.6600    -1.8130     0.3860 c6         1 KXS      -0.067400
     13 C08          0.5190    -0.4060     0.6300 c          1 KXS       0.605100
     14 C11         -1.8910    -0.2490    -0.2710 ca         1 KXS      -0.069000
     15 C13         -4.0120    -0.0810     0.9380 ca         1 KXS      -0.154000
     16 N10         -0.4720    -0.3350    -0.3440 ns         1 KXS      -0.154000
     17 O09          0.2990    -0.4270     1.8360 o          1 KXS      -0.588100
     18 O17         -6.0950     0.0080    -0.3500 os         1 KXS      -0.342100
     19 H121        -2.1000    -0.1660     1.9030 ha         1 KXS       0.123500
     20 H151        -4.5450    -0.1470    -2.4340 ha         1 KXS       0.123000
     21 H161        -2.0700    -0.2990    -2.4310 ha         1 KXS       0.123500
     22 H182        -7.9760     0.1500     0.5510 h1         1 KXS       0.040367
     23 H183        -6.7790    -0.7910     1.4650 h1         1 KXS       0.040367
     24 H181        -6.6700     0.9890     1.4130 h1         1 KXS       0.040367
     25 H201         1.1710     1.6440    -1.7420 hc         1 KXS       0.031533
     26 H203         1.2680     3.3800    -1.4400 hc         1 KXS       0.031533
     27 H202         2.7200     2.4930    -1.9300 hc         1 KXS       0.031533
     28 H011         4.9300    -3.3510     1.1360 hc         1 KXS       0.034033
     29 H012         4.1630    -4.0900    -0.2800 hc         1 KXS       0.034033
     30 H013         5.7400    -3.3060    -0.4390 hc         1 KXS       0.034033
     31 H021         3.9430    -1.8670    -1.3610 hc         1 KXS       0.042700
     32 H031         5.1230    -0.7220     1.2420 hc         1 KXS       0.041700
     33 H032         5.9120    -0.7310    -0.3310 hc         1 KXS       0.041700
     34 H041         4.8980     1.4840     0.1340 hc         1 KXS       0.041200
     35 H042         4.1690     0.7470    -1.2870 hc         1 KXS       0.041200
     36 H051         2.9790     0.7650     1.5510 hc         1 KXS       0.067700
     37 H061         1.8640    -0.4320    -1.0080 hc         1 KXS       0.050700
     38 H071         2.0330    -2.6390     0.0220 hc         1 KXS       0.051700
     39 H072         2.7500    -1.9470     1.4740 hc         1 KXS       0.051700
     40 H131        -4.5320    -0.0200     1.8890 ha         1 KXS       0.123000
     41 H213         3.1410     3.2130     1.8140 hc         1 KXS       0.031533
     42 H212         3.8460     3.5560     0.2180 hc         1 KXS       0.031533
     43 H211         2.3040     4.2920     0.6860 hc         1 KXS       0.031533
     44 H101        -0.1140    -0.3380    -1.2910 hn         1 KXS       0.150000
     45 C19          2.1370     2.1730     0.1660 c3         1 KXS      -0.061700
     46 C21          2.9080     3.3790     0.7560 c3         1 KXS      -0.085600
     47 C20          1.8070     2.4320    -1.3260 c3         1 KXS      -0.085600
     48 H191         1.1740     2.1720     0.6920 hc         1 KXS       0.054700
@<TRIPOS>BOND
     1     1    14 ar  
     2     1    15 ar  
     3     1    19 1   
     4     2     3 ar  
     5     2    15 ar  
     6     2    18 1   
     7     3     4 ar  
     8     3    20 1   
     9     4    14 ar  
    10     4    21 1   
    11     5    18 1   
    12     5    22 1   
    13     5    23 1   
    14     5    24 1   
    15     6     7 1   
    16     6    28 1   
    17     6    29 1   
    18     6    30 1   
    19     7     8 1   
    20     7    12 1   
    21     7    31 1   
    22     8     9 1   
    23     8    32 1   
    24     8    33 1   
    25     9    10 1   
    26     9    34 1   
    27     9    35 1   
    28    10    11 1   
    29    10    36 1   
    30    10    45 1   
    31    11    12 1   
    32    11    13 1   
    33    11    37 1   
    34    12    38 1   
    35    12    39 1   
    36    13    16 1   
    37    13    17 2   
    38    14    16 1   
    39    15    40 1   
    40    16    44 1   
    41    25    47 1   
    42    26    47 1   
    43    27    47 1   
    44    41    46 1   
    45    42    46 1   
    46    43    46 1   
    47    45    46 1   
    48    45    47 1   
    49    45    48 1   
@<TRIPOS>SUBSTRUCTURE
     1 KXS         1 TEMP              0 ****  ****    0 ROOT
