@<TRIPOS>MOLECULE
KXT
   35    38     1     0     0
SMALL
No Charge or Current Charge


@<TRIPOS>ATOM
      1 C02         20.4320    12.2070    10.5920 cc         1 KXT       0.128400
      2 C03         21.7100    11.8520    10.9610 cd         1 KXT      -0.273100
      3 C05         22.7060     9.6560    11.4440 cc         1 KXT      -0.102000
      4 C06         22.4100     8.2850    11.4830 cd         1 KXT      -0.062000
      5 C07         21.0490     7.8470    11.2030 cd         1 KXT      -0.098000
      6 C08         20.0810     8.7660    10.8650 cc         1 KXT      -0.074000
      7 C09         20.3520    10.1050    10.7880 cd         1 KXT      -0.076000
      8 C10         20.0390    13.6080    10.3660 ca         1 KXT      -0.019800
      9 C11         18.6720    13.9550    10.2820 ca         1 KXT      -0.089000
     10 C12         18.2790    15.2840    10.0430 ca         1 KXT      -0.116500
     11 C13         19.2480    16.2840     9.8730 ca         1 KXT      -0.105000
     12 C14         20.6100    15.9530     9.9370 ca         1 KXT      -0.116500
     13 C15         21.0040    14.6250    10.1770 ca         1 KXT      -0.089000
     14 C16         23.4650     7.3060    11.8790 ca         1 KXT      -0.033000
     15 C17         24.6690     7.7330    12.4950 ca         1 KXT      -0.099000
     16 C18         25.6630     6.8110    12.8680 ca         1 KXT      -0.108500
     17 C19         25.4800     5.4420    12.6330 ca         1 KXT      -0.103000
     18 C20         24.3010     4.9970    12.0210 ca         1 KXT      -0.108500
     19 C21         23.3050     5.9160    11.6490 ca         1 KXT      -0.099000
     20 N01         19.5860    11.1350    10.4900 nc         1 KXT      -0.289600
     21 N04         21.6440    10.4790    11.0820 na         1 KXT       0.137100
     22 H031        22.6070    12.4290    11.1490 h4         1 KXT       0.232000
     23 H051        23.6570    10.1330    11.6310 h4         1 KXT       0.146000
     24 H071        20.7590     6.8060    11.2680 ha         1 KXT       0.127000
     25 H081        19.0730     8.4190    10.6580 ha         1 KXT       0.144000
     26 H111        17.9050    13.1950    10.4090 ha         1 KXT       0.120000
     27 H121        17.2220    15.5360     9.9870 ha         1 KXT       0.111500
     28 H131        18.9440    17.3120     9.6860 ha         1 KXT       0.111000
     29 H141        21.3630    16.7250     9.7960 ha         1 KXT       0.111500
     30 H151        22.0660    14.3960    10.2050 ha         1 KXT       0.120000
     31 H171        24.8480     8.7800    12.7180 ha         1 KXT       0.114000
     32 H181        26.5750     7.1620    13.3460 ha         1 KXT       0.115000
     33 H191        26.2510     4.7290    12.9210 ha         1 KXT       0.115000
     34 H201        24.1580     3.9350    11.8290 ha         1 KXT       0.115000
     35 H211        22.4230     5.5250    11.1540 ha         1 KXT       0.114000
@<TRIPOS>BOND
     1     1     2 2   
     2     1     8 1   
     3     1    20 1   
     4     2    21 1   
     5     2    22 1   
     6     3     4 2   
     7     3    21 1   
     8     3    23 1   
     9     4     5 1   
    10     4    14 1   
    11     5     6 2   
    12     5    24 1   
    13     6     7 1   
    14     6    25 1   
    15     7    20 2   
    16     7    21 1   
    17     8     9 ar  
    18     8    13 ar  
    19     9    10 ar  
    20     9    26 1   
    21    10    11 ar  
    22    10    27 1   
    23    11    12 ar  
    24    11    28 1   
    25    12    13 ar  
    26    12    29 1   
    27    13    30 1   
    28    14    15 ar  
    29    14    19 ar  
    30    15    16 ar  
    31    15    31 1   
    32    16    17 ar  
    33    16    32 1   
    34    17    18 ar  
    35    17    33 1   
    36    18    19 ar  
    37    18    34 1   
    38    19    35 1   
@<TRIPOS>SUBSTRUCTURE
     1 KXT         1 TEMP              0 ****  ****    0 ROOT
