@<TRIPOS>MOLECULE
KXT
   35    38     1     0     0
SMALL
abcg2


@<TRIPOS>ATOM
      1 C02         20.5480    12.2710    10.6300 cc         1 KXT       0.128400
      2 C03         21.8410    11.8570    10.8580 cd         1 KXT      -0.273100
      3 C05         22.7290     9.6070    11.3840 cc         1 KXT      -0.102000
      4 C06         22.3990     8.3010    11.5930 cd         1 KXT      -0.062000
      5 C07         21.0290     7.9160    11.4990 cd         1 KXT      -0.098000
      6 C08         20.0580     8.8260    11.2150 cc         1 KXT      -0.074000
      7 C09         20.4160    10.1740    11.0080 cd         1 KXT      -0.076000
      8 C10         20.0860    13.6270    10.3280 ca         1 KXT      -0.019800
      9 C11         18.7220    13.8920    10.1930 ca         1 KXT      -0.089000
     10 C12         18.2760    15.1750     9.9120 ca         1 KXT      -0.116500
     11 C13         19.1830    16.2160     9.7600 ca         1 KXT      -0.105000
     12 C14         20.5430    15.9610     9.8910 ca         1 KXT      -0.116500
     13 C15         20.9900    14.6800    10.1710 ca         1 KXT      -0.089000
     14 C16         23.4460     7.3110    11.9110 ca         1 KXT      -0.033000
     15 C17         24.5100     7.6380    12.7520 ca         1 KXT      -0.099000
     16 C18         25.4980     6.7070    13.0390 ca         1 KXT      -0.108500
     17 C19         25.4340     5.4300    12.4960 ca         1 KXT      -0.103000
     18 C20         24.3760     5.0930    11.6630 ca         1 KXT      -0.108500
     19 C21         23.3900     6.0240    11.3730 ca         1 KXT      -0.099000
     20 N01         19.6810    11.2290    10.7240 nc         1 KXT      -0.289600
     21 N04         21.7540    10.5150    11.1020 na         1 KXT       0.137100
     22 H031        22.7840    12.3780    10.8740 h4         1 KXT       0.232000
     23 H051        23.7420     9.9820    11.4110 h4         1 KXT       0.146000
     24 H071        20.7570     6.8840    11.6810 ha         1 KXT       0.127000
     25 H081        19.0150     8.5470    11.1530 ha         1 KXT       0.144000
     26 H111        18.0090    13.0880    10.3100 ha         1 KXT       0.120000
     27 H121        17.2150    15.3620     9.8130 ha         1 KXT       0.111500
     28 H131        18.8350    17.2170     9.5400 ha         1 KXT       0.111000
     29 H141        21.2600    16.7630     9.7730 ha         1 KXT       0.111500
     30 H151        22.0550    14.5030    10.2650 ha         1 KXT       0.120000
     31 H171        24.5570     8.6200    13.2060 ha         1 KXT       0.114000
     32 H181        26.3140     6.9770    13.6970 ha         1 KXT       0.115000
     33 H191        26.2010     4.7020    12.7250 ha         1 KXT       0.115000
     34 H201        24.3190     4.1020    11.2310 ha         1 KXT       0.115000
     35 H211        22.5820     5.7510    10.7060 ha         1 KXT       0.114000
@<TRIPOS>BOND
     1     1     2 2   
     2     1     8 1   
     3     1    20 1   
     4     2    21 1   
     5     2    22 1   
     6     3     4 2   
     7     3    21 1   
     8     3    23 1   
     9     4     5 1   
    10     4    14 1   
    11     5     6 2   
    12     5    24 1   
    13     6     7 1   
    14     6    25 1   
    15     7    20 2   
    16     7    21 1   
    17     8     9 ar  
    18     8    13 ar  
    19     9    10 ar  
    20     9    26 1   
    21    10    11 ar  
    22    10    27 1   
    23    11    12 ar  
    24    11    28 1   
    25    12    13 ar  
    26    12    29 1   
    27    13    30 1   
    28    14    15 ar  
    29    14    19 ar  
    30    15    16 ar  
    31    15    31 1   
    32    16    17 ar  
    33    16    32 1   
    34    17    18 ar  
    35    17    33 1   
    36    18    19 ar  
    37    18    34 1   
    38    19    35 1   
@<TRIPOS>SUBSTRUCTURE
     1 KXT         1 TEMP              0 ****  ****    0 ROOT
