@<TRIPOS>MOLECULE
KXU
   45    47     1     0     0
SMALL
No Charge or Current Charge


@<TRIPOS>ATOM
      1 O1           2.1610    -0.5400     2.6950 o          1 KXU      -0.588100
      2 C9           2.2740    -0.4790     1.4760 c          1 KXU       0.523600
      3 N3           3.5130    -0.3840     0.8730 ns         1 KXU      -0.492900
      4 C10          4.7840    -0.3480     1.5920 c3         1 KXU       0.151300
      5 C11          5.9540    -0.2280     0.6290 ca         1 KXU      -0.076300
      6 C15          6.4280     1.0290     0.2130 ca         1 KXU      -0.149000
      7 C14          7.5100     1.0980    -0.6860 ca         1 KXU       0.356300
      8 C16          8.0550     2.4340    -1.1530 c3         1 KXU      -0.145400
      9 N4           8.1280    -0.0010    -1.1740 nb         1 KXU      -0.667000
     10 C13          7.6710    -1.2120    -0.7760 ca         1 KXU       0.342900
     11 C12          6.5950    -1.3690     0.1150 ca         1 KXU      -0.155000
     12 C8           1.1260    -0.4970     0.5110 cc         1 KXU       0.218500
     13 C7          -0.2100    -0.5890     0.9520 cc         1 KXU      -0.176000
     14 N2           1.2260    -0.4320    -0.8150 nd         1 KXU      -0.352300
     15 O           -0.1420    -0.4840    -1.2710 os         1 KXU      -0.047700
     16 C6          -0.9590    -0.5760    -0.1760 cd         1 KXU       0.165300
     17 C5          -2.4500    -0.6470    -0.3640 c3         1 KXU       0.000300
     18 S           -3.3740     0.6650     0.5640 ss         1 KXU      -0.278300
     19 C4          -5.0960     0.3570     0.1790 ca         1 KXU       0.238300
     20 N           -5.9920     1.1950     0.7430 nb         1 KXU      -0.193000
     21 C3          -7.2940     0.9810     0.4670 ca         1 KXU       0.145800
     22 C17         -8.2990     1.9280     1.0950 c3         1 KXU      -0.151900
     23 C2          -7.6960    -0.0700    -0.3740 ca         1 KXU      -0.229000
     24 N1          -5.3920    -0.6790    -0.6380 nb         1 KXU      -0.193000
     25 C1          -6.6930    -0.8930    -0.9130 ca         1 KXU       0.145800
     26 C           -7.0230    -2.0510    -1.8360 c3         1 KXU      -0.151900
     27 H3           3.5250    -0.3380    -0.1400 hn         1 KXU       0.342500
     28 H101         4.7810     0.5060     2.2820 h1         1 KXU       0.062700
     29 H102         4.8840    -1.2650     2.1880 h1         1 KXU       0.062700
     30 H15          5.9670     1.9420     0.5780 ha         1 KXU       0.126000
     31 H12          6.2710    -2.3670     0.3960 ha         1 KXU       0.127000
     32 H161         8.9170     2.7350    -0.5480 hc         1 KXU       0.052700
     33 H162         8.3760     2.3910    -2.2010 hc         1 KXU       0.052700
     34 H163         7.2970     3.2220    -1.0730 hc         1 KXU       0.052700
     35 H13          8.1830    -2.0820    -1.1860 h4         1 KXU       0.021100
     36 H7          -0.5480    -0.6520     1.9800 ha         1 KXU       0.174000
     37 H51C        -2.6790    -0.5530    -1.4330 h1         1 KXU       0.100700
     38 H52C        -2.7980    -1.6330    -0.0300 h1         1 KXU       0.100700
     39 H171        -8.3860     2.8490     0.5060 hc         1 KXU       0.058200
     40 H172        -9.2940     1.4720     1.1530 hc         1 KXU       0.058200
     41 H173        -8.0040     2.2060     2.1130 hc         1 KXU       0.058200
     42 H2          -8.7460    -0.2390    -0.6010 ha         1 KXU       0.134000
     43 HC1         -6.9010    -1.7590    -2.8850 hc         1 KXU       0.058200
     44 HC2         -6.3670    -2.9100    -1.6470 hc         1 KXU       0.058200
     45 HC3         -8.0570    -2.3890    -1.6990 hc         1 KXU       0.058200
@<TRIPOS>BOND
     1     1     2 2   
     2     2     3 1   
     3     2    12 1   
     4     3     4 1   
     5     3    27 1   
     6     4     5 1   
     7     4    28 1   
     8     4    29 1   
     9     5     6 ar  
    10     5    11 ar  
    11     6     7 ar  
    12     6    30 1   
    13     7     8 1   
    14     7     9 ar  
    15     8    32 1   
    16     8    33 1   
    17     8    34 1   
    18     9    10 ar  
    19    10    11 ar  
    20    10    35 1   
    21    11    31 1   
    22    12    13 1   
    23    12    14 2   
    24    13    16 2   
    25    13    36 1   
    26    14    15 1   
    27    15    16 1   
    28    16    17 1   
    29    17    18 1   
    30    17    37 1   
    31    17    38 1   
    32    18    19 1   
    33    19    20 ar  
    34    19    24 ar  
    35    20    21 ar  
    36    21    22 1   
    37    21    23 ar  
    38    22    39 1   
    39    22    40 1   
    40    22    41 1   
    41    23    25 ar  
    42    23    42 1   
    43    24    25 ar  
    44    25    26 1   
    45    26    43 1   
    46    26    44 1   
    47    26    45 1   
@<TRIPOS>SUBSTRUCTURE
     1 KXU         1 TEMP              0 ****  ****    0 ROOT
