@<TRIPOS>MOLECULE
KXU
   45    47     1     0     0
SMALL
abcg2


@<TRIPOS>ATOM
      1 O1           2.4400    -1.8920     2.3390 o          1 KXU      -0.588100
      2 C9           2.4170    -1.3070     1.2680 c          1 KXU       0.523600
      3 N3           3.5020    -0.8450     0.6400 ns         1 KXU      -0.492900
      4 C10          4.8320    -1.0050     1.1980 c3         1 KXU       0.151300
      5 C11          5.8370    -0.3410     0.3010 ca         1 KXU      -0.076300
      6 C15          6.1670     0.9970     0.4660 ca         1 KXU      -0.149000
      7 C14          7.0880     1.5940    -0.3910 ca         1 KXU       0.356300
      8 C16          7.4930     3.0260    -0.2140 c3         1 KXU      -0.145400
      9 N4           7.6640     0.9160    -1.3820 nb         1 KXU      -0.667000
     10 C13          7.3450    -0.3620    -1.5440 ca         1 KXU       0.342900
     11 C12          6.4440    -1.0370    -0.7360 ca         1 KXU      -0.155000
     12 C8           1.1190    -1.0680     0.5790 cc         1 KXU       0.218500
     13 C7          -0.1630    -1.4200     1.0600 cc         1 KXU      -0.176000
     14 N2           1.0460    -0.4830    -0.5820 nd         1 KXU      -0.352300
     15 O           -0.2630    -0.4340    -0.9000 os         1 KXU      -0.047700
     16 C6          -0.9890    -0.9940     0.0770 cd         1 KXU       0.165300
     17 C5          -2.4590    -1.0250    -0.0870 c3         1 KXU       0.000300
     18 S           -3.0830     0.6850    -0.0040 ss         1 KXU      -0.278300
     19 C4          -4.8160     0.4320    -0.1510 ca         1 KXU       0.238300
     20 N           -5.5090     1.5600    -0.1270 nb         1 KXU      -0.193000
     21 C3          -6.8310     1.4460    -0.2230 ca         1 KXU       0.145800
     22 C17         -7.6310     2.7060    -0.2220 c3         1 KXU      -0.151900
     23 C2          -7.4300     0.1960    -0.3360 ca         1 KXU      -0.229000
     24 N1          -5.2820    -0.7940    -0.2610 nb         1 KXU      -0.193000
     25 C1          -6.6090    -0.9210    -0.3550 ca         1 KXU       0.145800
     26 C           -7.1500    -2.3060    -0.4820 c3         1 KXU      -0.151900
     27 H3           3.3950    -0.3620    -0.2400 hn         1 KXU       0.342500
     28 H101         4.8700    -0.5640     2.1960 h1         1 KXU       0.062700
     29 H102         5.0670    -2.0670     1.3030 h1         1 KXU       0.062700
     30 H15          5.7170     1.5790     1.2620 ha         1 KXU       0.126000
     31 H12          6.2250    -2.0810    -0.9150 ha         1 KXU       0.127000
     32 H161         8.4380     3.0880     0.3300 hc         1 KXU       0.052700
     33 H162         7.6410     3.5110    -1.1770 hc         1 KXU       0.052700
     34 H163         6.7510     3.5880     0.3510 hc         1 KXU       0.052700
     35 H13          7.8330    -0.8820    -2.3610 h4         1 KXU       0.021100
     36 H7          -0.4240    -1.9080     1.9830 ha         1 KXU       0.174000
     37 H51C        -2.7410    -1.4690    -1.0420 h1         1 KXU       0.100700
     38 H52C        -2.8970    -1.6190     0.7130 h1         1 KXU       0.100700
     39 H171        -7.5150     3.2220    -1.1770 hc         1 KXU       0.058200
     40 H172        -8.6910     2.5100    -0.0740 hc         1 KXU       0.058200
     41 H173        -7.2840     3.3850     0.5560 hc         1 KXU       0.058200
     42 H2          -8.5040     0.0970    -0.4050 ha         1 KXU       0.134000
     43 HC1         -6.8070    -2.7600    -1.4130 hc         1 KXU       0.058200
     44 HC2         -6.7890    -2.9320     0.3340 hc         1 KXU       0.058200
     45 HC3         -8.2380    -2.3160    -0.4750 hc         1 KXU       0.058200
@<TRIPOS>BOND
     1     1     2 2   
     2     2     3 1   
     3     2    12 1   
     4     3     4 1   
     5     3    27 1   
     6     4     5 1   
     7     4    28 1   
     8     4    29 1   
     9     5     6 ar  
    10     5    11 ar  
    11     6     7 ar  
    12     6    30 1   
    13     7     8 1   
    14     7     9 ar  
    15     8    32 1   
    16     8    33 1   
    17     8    34 1   
    18     9    10 ar  
    19    10    11 ar  
    20    10    35 1   
    21    11    31 1   
    22    12    13 1   
    23    12    14 2   
    24    13    16 2   
    25    13    36 1   
    26    14    15 1   
    27    15    16 1   
    28    16    17 1   
    29    17    18 1   
    30    17    37 1   
    31    17    38 1   
    32    18    19 1   
    33    19    20 ar  
    34    19    24 ar  
    35    20    21 ar  
    36    21    22 1   
    37    21    23 ar  
    38    22    39 1   
    39    22    40 1   
    40    22    41 1   
    41    23    25 ar  
    42    23    42 1   
    43    24    25 ar  
    44    25    26 1   
    45    26    43 1   
    46    26    44 1   
    47    26    45 1   
@<TRIPOS>SUBSTRUCTURE
     1 KXU         1 TEMP              0 ****  ****    0 ROOT
