@<TRIPOS>MOLECULE
KXV
   40    41     1     0     0
SMALL
abcg2


@<TRIPOS>ATOM
      1 N           -2.1710     2.5280     1.4920 n8         1 KXV      -0.987200
      2 CB1         -3.2750     1.7650    -0.5260 c3         1 KXV       0.087600
      3 CA1         -2.7360     1.3660     0.8460 c3         1 KXV       0.153200
      4 C1          -1.7540     0.2390     0.6580 cc         1 KXV       0.452900
      5 N2          -0.4910     0.4410     0.4870 nd         1 KXV      -0.679300
      6 N3          -2.1200    -1.0860     0.6320 n          1 KXV      -0.297300
      7 C2          -0.9930    -1.8300     0.3670 c          1 KXV       0.538200
      8 O2          -0.9480    -3.0390     0.2470 o          1 KXV      -0.502000
      9 CA2          0.0780    -0.8100     0.3000 cd         1 KXV       0.033400
     10 CA3         -3.4410    -1.6590     0.6670 c3         1 KXV      -0.056000
     11 CB2          1.3740    -1.1220     0.0990 ce         1 KXV      -0.102200
     12 CG2          2.5310    -0.2560     0.0310 ca         1 KXV      -0.044800
     13 CD1          3.7820    -0.8640    -0.1770 ca         1 KXV      -0.144000
     14 CD2          2.4800     1.1340     0.1650 ca         1 KXV      -0.069000
     15 CE1          4.9380    -0.1140    -0.2480 ca         1 KXV       0.029100
     16 CE2          3.6380     1.8880     0.0920 ca         1 KXV      -0.137000
     17 CZ           4.8700     1.2850    -0.1140 ca         1 KXV       0.116100
     18 OH           5.9730     2.0470    -0.1810 oh         1 KXV      -0.540100
     19 C           -4.0370    -1.9340    -0.7340 c          1 KXV       0.714000
     20 O           -3.4060    -1.5050    -1.7130 o          1 KXV      -0.714500
     21 O4           6.1820    -0.6020    -0.4400 os         1 KXV      -0.376100
     22 HN1         -1.8940     2.2980     2.4380 hn         1 KXV       0.403500
     23 HN2         -1.3240     2.8060     1.0090 hn         1 KXV       0.403500
     24 HG1         -5.2420     2.8190    -1.3640 hs         1 KXV       0.198800
     25 HB11        -3.7570     0.9240    -1.0190 h1         1 KXV       0.093700
     26 HB12        -2.4490     2.0940    -1.1590 h1         1 KXV       0.093700
     27 HA1         -3.5730     1.0170     1.4550 h1         1 KXV       0.087700
     28 HA31        -3.3980    -2.5870     1.2380 h1         1 KXV       0.045200
     29 HA32        -4.1060    -0.9950     1.2220 h1         1 KXV       0.045200
     30 HB2          1.5770    -2.1810    -0.0280 ha         1 KXV       0.184000
     31 HD1          3.8240    -1.9420    -0.2780 ha         1 KXV       0.115000
     32 HD2          1.5330     1.6270     0.3310 ha         1 KXV       0.153000
     33 HE2          3.5930     2.9650     0.1950 ha         1 KXV       0.124000
     34 H1           6.7550     1.4950    -0.3120 ho         1 KXV       0.475000
     35 OXT         -5.1150    -2.5540    -0.7200 o          1 KXV      -0.714500
     36 H2           6.0170    -2.5400     0.3030 h1         1 KXV       0.038367
     37 H3           5.7970    -2.3780    -1.4550 h1         1 KXV       0.038367
     38 H4           7.4070    -2.1730    -0.7380 h1         1 KXV       0.038367
     39 CF           6.3440    -1.9990    -0.5890 c3         1 KXV       0.159900
     40 SG1         -4.4730     3.1230    -0.3130 sh         1 KXV      -0.456800
@<TRIPOS>BOND
     1     1     3 1   
     2     1    22 1   
     3     1    23 1   
     4     2     3 1   
     5     2    25 1   
     6     2    26 1   
     7     2    40 1   
     8     3     4 1   
     9     3    27 1   
    10     4     5 2   
    11     4     6 1   
    12     5     9 1   
    13     6     7 1   
    14     6    10 1   
    15     7     8 2   
    16     7     9 1   
    17     9    11 2   
    18    10    19 1   
    19    10    28 1   
    20    10    29 1   
    21    11    12 1   
    22    11    30 1   
    23    12    13 ar  
    24    12    14 ar  
    25    13    15 ar  
    26    13    31 1   
    27    14    16 ar  
    28    14    32 1   
    29    15    17 ar  
    30    15    21 1   
    31    16    17 ar  
    32    16    33 1   
    33    17    18 1   
    34    18    34 1   
    35    19    20 1   
    36    19    35 1   
    37    21    39 1   
    38    24    40 1   
    39    36    39 1   
    40    37    39 1   
    41    38    39 1   
@<TRIPOS>SUBSTRUCTURE
     1 KXV         1 TEMP              0 ****  ****    0 ROOT
