@<TRIPOS>MOLECULE
KXV
   40    41     1     0     0
SMALL
No Charge or Current Charge


@<TRIPOS>ATOM
      1 N           -1.9520     2.3150     2.0290 n8         1 KXV      -0.987200
      2 CB1         -3.3610     1.9710    -0.0380 c3         1 KXV       0.087600
      3 CA1         -2.6420     1.2940     1.1600 c3         1 KXV       0.153200
      4 C1          -1.7160     0.1670     0.6730 cc         1 KXV       0.452900
      5 N2          -0.3980     0.3490     0.4890 nd         1 KXV      -0.679300
      6 N3          -2.1490    -1.1220     0.3870 n          1 KXV      -0.297300
      7 C2          -1.0860    -1.8890    -0.0240 c          1 KXV       0.538200
      8 O2          -1.0830    -3.0670    -0.3630 o          1 KXV      -0.502000
      9 CA2          0.0160    -0.9100     0.0590 cd         1 KXV       0.033400
     10 CA3         -3.5450    -1.6440     0.4210 c3         1 KXV      -0.056000
     11 CB2          1.3310    -1.1890    -0.2580 ce         1 KXV      -0.102200
     12 CG2          2.5300    -0.3020    -0.3610 ca         1 KXV      -0.044800
     13 CD1          3.8070    -0.8560    -0.1380 ca         1 KXV      -0.144000
     14 CD2          2.4200     1.0620    -0.7060 ca         1 KXV      -0.069000
     15 CE1          4.9650    -0.0520    -0.2390 ca         1 KXV       0.029100
     16 CE2          3.5690     1.8650    -0.8080 ca         1 KXV      -0.137000
     17 CZ           4.8350     1.3110    -0.5730 ca         1 KXV       0.116100
     18 OH           5.9500     2.0900    -0.6730 oh         1 KXV      -0.540100
     19 C           -4.1260    -2.0060    -0.9660 c          1 KXV       0.714000
     20 O           -3.9970    -1.1970    -1.8740 o          1 KXV      -0.714500
     21 O4           6.2390    -0.5520    -0.0220 os         1 KXV      -0.376100
     22 HN1         -1.5640     1.8390     2.8530 hn         1 KXV       0.403500
     23 HN2         -1.1040     2.6230     1.5360 hn         1 KXV       0.403500
     24 HG1         -5.0630     3.4980    -0.8430 hs         1 KXV       0.198800
     25 HB11        -3.7940     1.1920    -0.6790 h1         1 KXV       0.093700
     26 HB12        -2.6220     2.5150    -0.6410 h1         1 KXV       0.093700
     27 HA1         -3.4210     0.8310     1.7810 h1         1 KXV       0.087700
     28 HA31        -3.5630    -2.5450     1.0470 h1         1 KXV       0.045200
     29 HA32        -4.2200    -0.9120     0.8780 h1         1 KXV       0.045200
     30 HB2          1.5220    -2.2320    -0.5150 ha         1 KXV       0.184000
     31 HD1          3.8810    -1.9090     0.1190 ha         1 KXV       0.115000
     32 HD2          1.4480     1.5020    -0.9090 ha         1 KXV       0.153000
     33 HE2          3.4760     2.9150    -1.0740 ha         1 KXV       0.124000
     34 H1           6.7130     1.5020    -0.4730 ho         1 KXV       0.475000
     35 OXT         -4.6830    -3.0860    -1.0960 o          1 KXV      -0.714500
     36 H2           5.9760    -2.1870     1.2670 h1         1 KXV       0.038367
     37 H3           6.1100    -2.5990    -0.4640 h1         1 KXV       0.038367
     38 H4           7.5510    -2.1110     0.4500 h1         1 KXV       0.038367
     39 CF           6.4760    -1.9300     0.3240 c3         1 KXV       0.159900
     40 SG1         -4.7350     3.1450     0.4250 sh         1 KXV      -0.456800
@<TRIPOS>BOND
     1     1     3 1   
     2     1    22 1   
     3     1    23 1   
     4     2     3 1   
     5     2    25 1   
     6     2    26 1   
     7     2    40 1   
     8     3     4 1   
     9     3    27 1   
    10     4     5 2   
    11     4     6 1   
    12     5     9 1   
    13     6     7 1   
    14     6    10 1   
    15     7     8 2   
    16     7     9 1   
    17     9    11 2   
    18    10    19 1   
    19    10    28 1   
    20    10    29 1   
    21    11    12 1   
    22    11    30 1   
    23    12    13 ar  
    24    12    14 ar  
    25    13    15 ar  
    26    13    31 1   
    27    14    16 ar  
    28    14    32 1   
    29    15    17 ar  
    30    15    21 1   
    31    16    17 ar  
    32    16    33 1   
    33    17    18 1   
    34    18    34 1   
    35    19    20 1   
    36    19    35 1   
    37    21    39 1   
    38    24    40 1   
    39    36    39 1   
    40    37    39 1   
    41    38    39 1   
@<TRIPOS>SUBSTRUCTURE
     1 KXV         1 TEMP              0 ****  ****    0 ROOT
