@<TRIPOS>MOLECULE
KXW
   66    69     1     0     0
SMALL
No Charge or Current Charge


@<TRIPOS>ATOM
      1 C02        -23.7940    19.7400   -12.5780 c5         1 KXW       0.158300
      2 C03        -24.3390    21.0670   -13.1780 c5         1 KXW       0.085300
      3 C05        -23.1770    22.0750   -12.8220 c5         1 KXW       0.281300
      4 C07        -22.2700    24.3340   -13.4830 ca         1 KXW       0.138500
      5 C09        -21.2920    26.1020   -12.4090 ca         1 KXW       0.173900
      6 C11        -21.6140    26.3000   -14.6660 ca         1 KXW       0.442900
      7 C13        -22.1860    25.0110   -14.6740 ca         1 KXW      -0.099600
      8 C15        -23.1040    23.1260   -15.1590 cc         1 KXW       0.416700
      9 C17        -22.2730    19.8920   -12.8990 c5         1 KXW       0.161300
     10 C18        -21.8880    19.6160   -14.3880 c3         1 KXW       0.159800
     11 C20        -21.8550    17.1380   -14.2350 c3         1 KXW       0.167800
     12 C21        -22.5240    15.7880   -14.5960 c3         1 KXW      -0.050400
     13 C22        -22.1830    14.6340   -13.6160 c3         1 KXW       0.015500
     14 C23        -23.1460    13.4020   -13.8690 c          1 KXW       0.686000
     15 C27        -22.1790    18.2370   -16.4420 c3         1 KXW       0.176800
     16 C28        -22.9080    19.3150   -17.2780 c3         1 KXW      -0.095400
     17 C29        -22.8600    19.0090   -18.7860 c3         1 KXW       0.221800
     18 C31        -23.7420    20.1090   -20.8970 ca         1 KXW       0.612900
     19 C32        -23.0790    19.2870   -21.8190 ca         1 KXW      -0.229000
     20 C33        -23.3540    19.4520   -23.1840 ca         1 KXW      -0.034000
     21 C34        -24.2830    20.4400   -23.5440 ca         1 KXW      -0.236000
     22 C35        -24.8910    21.2130   -22.5390 ca         1 KXW       0.382900
     23 N06        -22.8540    23.1350   -13.7810 na         1 KXW      -0.296300
     24 N08        -21.8290    24.8610   -12.3230 nb         1 KXW      -0.209000
     25 N10        -21.1600    26.8530   -13.5300 nb         1 KXW      -0.303000
     26 N12        -21.4810    27.0510   -15.7920 nv         1 KXW      -1.070900
     27 N14        -22.7020    24.2720   -15.7420 nd         1 KXW      -0.564100
     28 N19        -22.3840    18.3290   -14.9670 n3         1 KXW      -0.740600
     29 N26        -20.7030    14.3320   -13.6310 n8         1 KXW      -1.011200
     30 N30        -23.5590    20.0500   -19.5470 nu         1 KXW      -0.926100
     31 N36        -24.6230    21.0520   -21.2240 nb         1 KXW      -0.757000
     32 O01        -24.0820    19.6940   -11.1730 oh         1 KXW      -0.704000
     33 O04        -25.6120    21.4110   -12.5890 oh         1 KXW      -0.710000
     34 O16        -21.9920    21.2770   -12.5720 os         1 KXW      -0.460000
     35 O24        -24.0030    13.1560   -13.0310 o          1 KXW      -0.731000
     36 O25        -22.9240    12.6750   -14.8290 o          1 KXW      -0.731000
     37 H1         -24.2270    18.8670   -13.0880 h1         1 KXW       0.085700
     38 H2         -24.4490    20.9490   -14.2630 h1         1 KXW       0.045700
     39 H3         -23.4390    22.5950   -11.8910 h2         1 KXW       0.116700
     40 H4         -20.9290    26.5410   -11.4820 h5         1 KXW       0.045100
     41 H5         -23.5620    22.2880   -15.6700 h5         1 KXW       0.069800
     42 H6         -21.6670    19.2410   -12.2570 h1         1 KXW       0.115700
     43 H7         -20.7930    19.6560   -14.4660 h1         1 KXW       0.032200
     44 H8         -22.2700    20.4570   -14.9750 h1         1 KXW       0.032200
     45 H9         -20.7720    17.0530   -14.3960 h1         1 KXW       0.035700
     46 H10        -22.0040    17.2750   -13.1570 h1         1 KXW       0.035700
     47 H11        -23.6110    15.9330   -14.5950 hc         1 KXW       0.047700
     48 H12        -22.2450    15.4840   -15.6120 hc         1 KXW       0.047700
     49 H13        -22.4160    14.9950   -12.6050 h1         1 KXW       0.039700
     50 H14        -22.5480    17.2700   -16.8050 h1         1 KXW       0.040700
     51 H15        -21.1060    18.2750   -16.6760 h1         1 KXW       0.040700
     52 H16        -22.4490    20.2950   -17.1090 hc         1 KXW       0.049200
     53 H17        -23.9530    19.3740   -16.9520 hc         1 KXW       0.049200
     54 H18        -23.3290    18.0330   -18.9740 h1         1 KXW       0.041200
     55 H19        -21.8120    18.9500   -19.1090 h1         1 KXW       0.041200
     56 H20        -22.3660    18.5390   -21.4880 ha         1 KXW       0.125000
     57 H21        -22.8640    18.8370   -23.9370 ha         1 KXW       0.110000
     58 H22        -24.5340    20.6120   -24.5870 ha         1 KXW       0.117000
     59 H23        -25.6140    21.9870   -22.7950 h4         1 KXW       0.009100
     60 H24        -20.8130    27.8170   -15.7790 hn         1 KXW       0.504000
     61 H25        -21.6130    26.5750   -16.6820 hn         1 KXW       0.504000
     62 H27        -20.5020    13.6130   -12.9250 hn         1 KXW       0.385000
     63 H28        -20.4820    13.8550   -14.5140 hn         1 KXW       0.385000
     64 H30        -24.1690    20.6900   -19.0470 hn         1 KXW       0.488000
     65 H31        -24.8890    20.2630   -11.1020 ho         1 KXW       0.519000
     66 H32        -26.0270    22.1090   -13.1520 ho         1 KXW       0.517000
@<TRIPOS>BOND
     1     1     2 1   
     2     1     9 1   
     3     1    32 1   
     4     1    37 1   
     5     2     3 1   
     6     2    33 1   
     7     2    38 1   
     8     3    23 1   
     9     3    34 1   
    10     3    39 1   
    11     4     7 ar  
    12     4    23 1   
    13     4    24 ar  
    14     5    24 ar  
    15     5    25 ar  
    16     5    40 1   
    17     6     7 ar  
    18     6    25 ar  
    19     6    26 1   
    20     7    27 1   
    21     8    23 1   
    22     8    27 2   
    23     8    41 1   
    24     9    10 1   
    25     9    34 1   
    26     9    42 1   
    27    10    28 1   
    28    10    43 1   
    29    10    44 1   
    30    11    12 1   
    31    11    28 1   
    32    11    45 1   
    33    11    46 1   
    34    12    13 1   
    35    12    47 1   
    36    12    48 1   
    37    13    14 1   
    38    13    29 1   
    39    13    49 1   
    40    14    35 1   
    41    14    36 1   
    42    15    16 1   
    43    15    28 1   
    44    15    50 1   
    45    15    51 1   
    46    16    17 1   
    47    16    52 1   
    48    16    53 1   
    49    17    30 1   
    50    17    54 1   
    51    17    55 1   
    52    18    19 ar  
    53    18    30 1   
    54    18    31 ar  
    55    19    20 ar  
    56    19    56 1   
    57    20    21 ar  
    58    20    57 1   
    59    21    22 ar  
    60    21    58 1   
    61    22    31 ar  
    62    22    59 1   
    63    26    60 1   
    64    26    61 1   
    65    29    62 1   
    66    29    63 1   
    67    30    64 1   
    68    32    65 1   
    69    33    66 1   
@<TRIPOS>SUBSTRUCTURE
     1 KXW         1 TEMP              0 ****  ****    0 ROOT
