@<TRIPOS>MOLECULE
KXW
   66    69     1     0     0
SMALL
abcg2


@<TRIPOS>ATOM
      1 C02        -24.1340    20.3150   -13.7940 c5         1 KXW       0.158300
      2 C03        -24.0840    21.8100   -14.0950 c5         1 KXW       0.085300
      3 C05        -23.0130    22.2940   -13.1050 c5         1 KXW       0.281300
      4 C07        -22.2250    24.6770   -12.8470 ca         1 KXW       0.138500
      5 C09        -22.4790    26.2530   -11.3160 ca         1 KXW       0.173900
      6 C11        -21.1920    26.8040   -13.1580 ca         1 KXW       0.442900
      7 C13        -21.4340    25.5040   -13.6420 ca         1 KXW      -0.099600
      8 C15        -21.5660    23.6470   -14.6820 cc         1 KXW       0.416700
      9 C17        -22.6750    19.9970   -13.4980 c5         1 KXW       0.161300
     10 C18        -21.8790    19.5580   -14.7230 c3         1 KXW       0.159800
     11 C20        -21.5860    17.1660   -14.4490 c3         1 KXW       0.167800
     12 C21        -22.3820    15.8670   -14.4030 c3         1 KXW      -0.050400
     13 C22        -21.6390    14.7220   -13.7020 c3         1 KXW       0.015500
     14 C23        -22.6530    13.5850   -13.4090 c          1 KXW       0.686000
     15 C27        -22.1690    18.0850   -16.6280 c3         1 KXW       0.176800
     16 C28        -23.3120    18.7620   -17.3750 c3         1 KXW      -0.095400
     17 C29        -23.1620    18.6300   -18.8830 c3         1 KXW       0.221800
     18 C31        -24.4020    19.3280   -20.9170 ca         1 KXW       0.612900
     19 C32        -23.6300    18.5200   -21.7770 ca         1 KXW      -0.229000
     20 C33        -23.8530    18.6010   -23.1380 ca         1 KXW      -0.034000
     21 C34        -24.8220    19.4750   -23.6320 ca         1 KXW      -0.236000
     22 C35        -25.5230    20.2380   -22.7110 ca         1 KXW       0.382900
     23 N06        -22.3080    23.4840   -13.5310 na         1 KXW      -0.296300
     24 N08        -22.7750    25.0050   -11.6730 nb         1 KXW      -0.209000
     25 N10        -21.7370    27.1500   -11.9750 nb         1 KXW      -0.303000
     26 N12        -20.4590    27.7070   -13.8270 nv         1 KXW      -1.070900
     27 N14        -21.0290    24.8370   -14.7860 nd         1 KXW      -0.564100
     28 N19        -22.2840    18.2330   -15.1760 n3         1 KXW      -0.740600
     29 N26        -20.4830    14.3010   -14.5090 n8         1 KXW      -1.011200
     30 N30        -24.2720    19.2770   -19.5590 nu         1 KXW      -0.926100
     31 N36        -25.3310    20.1790   -21.3920 nb         1 KXW      -0.757000
     32 O01        -24.9050    20.0530   -12.6250 oh         1 KXW      -0.704000
     33 O04        -25.3470    22.4100   -13.9050 oh         1 KXW      -0.710000
     34 O16        -22.0980    21.2210   -12.9720 os         1 KXW      -0.460000
     35 O24        -23.3250    13.6880   -12.3490 o          1 KXW      -0.731000
     36 O25        -22.7510    12.6700   -14.2660 o          1 KXW      -0.731000
     37 H1         -24.5060    19.7360   -14.6400 h1         1 KXW       0.085700
     38 H2         -23.7330    21.9590   -15.1200 h1         1 KXW       0.045700
     39 H3         -23.4750    22.5410   -12.1480 h2         1 KXW       0.116700
     40 H4         -22.8900    26.5900   -10.3700 h5         1 KXW       0.045100
     41 H5         -21.4550    22.8450   -15.3950 h5         1 KXW       0.069800
     42 H6         -22.6170    19.2400   -12.7140 h1         1 KXW       0.115700
     43 H7         -20.8080    19.5990   -14.4750 h1         1 KXW       0.032200
     44 H8         -22.0410    20.2810   -15.5230 h1         1 KXW       0.032200
     45 H9         -20.5900    16.9870   -14.8800 h1         1 KXW       0.035700
     46 H10        -21.4260    17.5040   -13.4230 h1         1 KXW       0.035700
     47 H11        -23.3240    16.0600   -13.8830 hc         1 KXW       0.047700
     48 H12        -22.6380    15.5390   -15.4150 hc         1 KXW       0.047700
     49 H13        -21.2650    15.0860   -12.7420 h1         1 KXW       0.039700
     50 H14        -22.1830    17.0210   -16.8630 h1         1 KXW       0.040700
     51 H15        -21.2010    18.4730   -16.9880 h1         1 KXW       0.040700
     52 H16        -23.3600    19.8230   -17.1140 hc         1 KXW       0.049200
     53 H17        -24.2580    18.3120   -17.0600 hc         1 KXW       0.049200
     54 H18        -23.1420    17.5710   -19.1570 h1         1 KXW       0.041200
     55 H19        -22.2040    19.0610   -19.2030 h1         1 KXW       0.041200
     56 H20        -22.8810    17.8510   -21.3800 ha         1 KXW       0.125000
     57 H21        -23.2720    17.9870   -23.8140 ha         1 KXW       0.110000
     58 H22        -25.0200    19.5660   -24.6910 ha         1 KXW       0.117000
     59 H23        -26.2830    20.9380   -23.0460 h4         1 KXW       0.009100
     60 H24        -20.2530    28.5960   -13.4020 hn         1 KXW       0.504000
     61 H25        -19.9760    27.4500   -14.6710 hn         1 KXW       0.504000
     62 H27        -19.8940    13.6960   -13.9440 hn         1 KXW       0.385000
     63 H28        -20.8440    13.7000   -15.2460 hn         1 KXW       0.385000
     64 H30        -24.7250    20.0340   -19.0690 hn         1 KXW       0.488000
     65 H31        -25.7600    20.4930   -12.7330 ho         1 KXW       0.519000
     66 H32        -25.3600    23.2700   -14.3450 ho         1 KXW       0.517000
@<TRIPOS>BOND
     1     1     2 1   
     2     1     9 1   
     3     1    32 1   
     4     1    37 1   
     5     2     3 1   
     6     2    33 1   
     7     2    38 1   
     8     3    23 1   
     9     3    34 1   
    10     3    39 1   
    11     4     7 ar  
    12     4    23 1   
    13     4    24 ar  
    14     5    24 ar  
    15     5    25 ar  
    16     5    40 1   
    17     6     7 ar  
    18     6    25 ar  
    19     6    26 1   
    20     7    27 1   
    21     8    23 1   
    22     8    27 2   
    23     8    41 1   
    24     9    10 1   
    25     9    34 1   
    26     9    42 1   
    27    10    28 1   
    28    10    43 1   
    29    10    44 1   
    30    11    12 1   
    31    11    28 1   
    32    11    45 1   
    33    11    46 1   
    34    12    13 1   
    35    12    47 1   
    36    12    48 1   
    37    13    14 1   
    38    13    29 1   
    39    13    49 1   
    40    14    35 1   
    41    14    36 1   
    42    15    16 1   
    43    15    28 1   
    44    15    50 1   
    45    15    51 1   
    46    16    17 1   
    47    16    52 1   
    48    16    53 1   
    49    17    30 1   
    50    17    54 1   
    51    17    55 1   
    52    18    19 ar  
    53    18    30 1   
    54    18    31 ar  
    55    19    20 ar  
    56    19    56 1   
    57    20    21 ar  
    58    20    57 1   
    59    21    22 ar  
    60    21    58 1   
    61    22    31 ar  
    62    22    59 1   
    63    26    60 1   
    64    26    61 1   
    65    29    62 1   
    66    29    63 1   
    67    30    64 1   
    68    32    65 1   
    69    33    66 1   
@<TRIPOS>SUBSTRUCTURE
     1 KXW         1 TEMP              0 ****  ****    0 ROOT
