@<TRIPOS>MOLECULE
KXX
  125   128     1     0     0
SMALL
No Charge or Current Charge


@<TRIPOS>ATOM
      1 C16         23.9520     4.3870     8.1270 c          1 KXX       0.494100
      2 C18         23.7710     4.0890     9.6860 c          1 KXX       0.528100
      3 C14         24.7530     3.3340     7.2530 c6         1 KXX       0.320000
      4 C10         24.2940     1.2820     5.9170 c6         1 KXX       0.155300
      5 C13         25.8960     2.5950     8.0360 c6         1 KXX      -0.058700
      6 C12         26.4580     1.3780     7.2400 c6         1 KXX      -0.109400
      7 C11         25.3420     0.4380     6.7070 c6         1 KXX       0.149300
      8 C03         22.7190    -4.7980     7.9920 c3         1 KXX      -0.118500
      9 C04         22.2770    -3.7330     6.9870 c2         1 KXX      -0.232200
     10 C05         21.0800    -3.1210     6.8960 c2         1 KXX      -0.101400
     11 C06         20.7560    -2.1570     5.7570 c3         1 KXX      -0.044200
     12 C07         20.7230    -0.6610     6.1760 c3         1 KXX      -0.052700
     13 C08         22.1130    -0.0700     6.5680 c3         1 KXX      -0.073400
     14 C09         23.0170     0.4880     5.4250 c3         1 KXX       0.184300
     15 C21         21.6900     2.7150     9.1870 c6         1 KXX       0.101000
     16 C22         20.1990     2.7930     9.5720 c6         1 KXX      -0.099400
     17 C23         19.9730     2.3030    11.0100 c6         1 KXX      -0.078400
     18 C24         20.8610     3.1050    11.9770 c6         1 KXX      -0.079400
     19 C25         22.3750     3.1150    11.6010 c6         1 KXX       0.043700
     20 C26         23.1230     1.8490    12.1180 c          1 KXX       0.584100
     21 C29         23.3460    -0.5950    11.9160 c3         1 KXX       0.198500
     22 C30         22.6670    -1.7650    11.1260 c3         1 KXX      -0.085700
     23 C31         23.2950    -3.1450    11.5200 c3         1 KXX       0.183300
     24 C32         22.9500    -4.3210    10.5760 c3         1 KXX      -0.186400
     25 C33         23.5290    -4.1830     9.1590 c          1 KXX       0.581100
     26 C36         21.1180    -1.7470    11.2490 c3         1 KXX      -0.086100
     27 C37         24.8630    -0.5450    11.6830 c2         1 KXX      -0.129400
     28 C38         25.7430    -0.6960    12.6940 c2         1 KXX      -0.199200
     29 C39         27.2620    -0.6520    12.5690 c6         1 KXX      -0.027500
     30 C40         27.9380    -1.5690    13.6250 c6         1 KXX      -0.072400
     31 C41         29.4840    -1.4960    13.5380 c6         1 KXX      -0.073400
     32 C42         29.9680    -0.0330    13.6820 c6         1 KXX       0.172300
     33 C43         29.3210     0.8740    12.5920 c6         1 KXX       0.130300
     34 C44         27.7720     0.8110    12.6980 c6         1 KXX      -0.093400
     35 C48         25.2560    -0.2940    10.2360 c3         1 KXX      -0.057900
     36 C50         27.0720     3.5360     8.4440 c3         1 KXX      -0.084100
     37 C55         19.9660     0.2100     5.1450 c3         1 KXX      -0.088100
     38 C56         19.8950    -3.3500     7.8300 c3         1 KXX      -0.061900
     39 N20         22.5970     3.4210    10.1370 n          1 KXX      -0.370800
     40 O15         23.8000     2.3640     6.7620 os         1 KXX      -0.512000
     41 O17         23.3650     5.3410     7.6050 o          1 KXX      -0.483100
     42 O19         24.6010     4.4880    10.4990 o          1 KXX      -0.596100
     43 O27         24.1410     1.9650    12.7860 o          1 KXX      -0.491000
     44 O28         22.7300     0.6630    11.5220 os         1 KXX      -0.437100
     45 O34         24.6100    -3.6410     8.9620 o          1 KXX      -0.539100
     46 O35         22.8830    -3.4990    12.8450 oh         1 KXX      -0.669000
     47 O45         29.8390     2.2220    12.7160 os         1 KXX      -0.477000
     48 O47         31.3970     0.0490    13.6040 oh         1 KXX      -0.726000
     49 O49         25.2860     3.9780     6.0870 oh         1 KXX      -0.650000
     50 O51         25.9180    -0.6020     5.8840 os         1 KXX      -0.449000
     51 O53         23.3540    -0.6120     4.5490 os         1 KXX      -0.447000
     52 H1          24.7820     1.7210     5.0370 h1         1 KXX       0.067700
     53 H2          25.4810     2.2200     8.9760 hc         1 KXX       0.065700
     54 H3          27.1500     0.8190     7.8830 hc         1 KXX       0.060700
     55 H4          27.0520     1.7400     6.3890 hc         1 KXX       0.060700
     56 H5          24.8290    -0.0380     7.5510 h1         1 KXX       0.044700
     57 H6          24.3960    -7.8890     7.6260 hc         1 KXX       0.035033
     58 H7          24.5640    -6.7840     9.0030 hc         1 KXX       0.035033
     59 H8          22.9920    -7.5440     8.6560 hc         1 KXX       0.035033
     60 H11         21.8360    -5.2820     8.4190 hc         1 KXX       0.063700
     61 H12         23.0490    -3.4880     6.2530 ha         1 KXX       0.192000
     62 H13         19.7840    -2.4300     5.3260 hc         1 KXX       0.058200
     63 H14         21.4710    -2.2820     4.9370 hc         1 KXX       0.058200
     64 H15         20.1150    -0.6070     7.0870 hc         1 KXX       0.039700
     65 H16         22.6730    -0.8040     7.1580 hc         1 KXX       0.055700
     66 H17         21.9060     0.7590     7.2450 hc         1 KXX       0.055700
     67 H18         22.4200     1.2200     4.8660 h1         1 KXX       0.041700
     68 H19         21.7920     3.1100     8.1690 h1         1 KXX       0.065700
     69 H20         21.9920     1.6600     9.1670 h1         1 KXX       0.065700
     70 H21         19.8490     3.8300     9.4720 hc         1 KXX       0.055200
     71 H22         19.6040     2.1910     8.8720 hc         1 KXX       0.055200
     72 H23         18.9160     2.4220    11.2850 hc         1 KXX       0.050200
     73 H24         20.1940     1.2340    11.0880 hc         1 KXX       0.050200
     74 H25         20.7320     2.7300    13.0020 hc         1 KXX       0.068200
     75 H26         20.5030     4.1440    11.9950 hc         1 KXX       0.068200
     76 H27         22.8250     3.9300    12.1860 h1         1 KXX       0.113700
     77 H28         23.1570    -0.7640    12.9860 h1         1 KXX       0.075700
     78 H29         22.8830    -1.6050    10.0640 hc         1 KXX       0.070700
     79 H30         24.3900    -3.0430    11.5030 h1         1 KXX       0.056700
     80 H31         21.8750    -4.5180    10.5310 hc         1 KXX       0.079700
     81 H32         23.3690    -5.2500    10.9790 hc         1 KXX       0.079700
     82 H33         20.7030    -0.8800    10.7280 hc         1 KXX       0.042033
     83 H34         20.6650    -2.6330    10.7920 hc         1 KXX       0.042033
     84 H35         20.8040    -1.7050    12.2990 hc         1 KXX       0.042033
     85 H36         25.3670    -0.8570    13.7060 ha         1 KXX       0.170000
     86 H37         27.5490    -1.0320    11.5780 hc         1 KXX       0.056700
     87 H38         27.6160    -1.2780    14.6350 hc         1 KXX       0.045200
     88 H39         27.6090    -2.6080    13.4810 hc         1 KXX       0.045200
     89 H40         29.9300    -2.1160    14.3270 hc         1 KXX       0.057200
     90 H41         29.8250    -1.9120    12.5800 hc         1 KXX       0.057200
     91 H42         29.6380     0.3370    14.6650 h1         1 KXX       0.043700
     92 H43         29.6150     0.4880    11.6050 h1         1 KXX       0.045700
     93 H44         27.3100     1.4210    11.9110 hc         1 KXX       0.054200
     94 H45         27.4460     1.2380    13.6560 hc         1 KXX       0.054200
     95 H46         30.0100     4.1170    11.8500 h1         1 KXX       0.033367
     96 H47         29.7350     2.7920    10.6990 h1         1 KXX       0.033367
     97 H48         28.4000     3.3890    11.7190 h1         1 KXX       0.033367
     98 H49         26.2480     0.1580    10.1400 hc         1 KXX       0.049367
     99 H50         25.2670    -1.2260     9.6630 hc         1 KXX       0.049367
    100 H51         24.5450     0.3790     9.7480 hc         1 KXX       0.049367
    101 H52         26.7290     4.4160     8.9980 hc         1 KXX       0.047700
    102 H53         27.7910     3.0090     9.0810 hc         1 KXX       0.047700
    103 H54         27.6190     3.8990     7.5650 hc         1 KXX       0.047700
    104 H55         26.9970    -2.3910     5.8270 h1         1 KXX       0.037033
    105 H56         27.6300    -1.1830     6.9600 h1         1 KXX       0.037033
    106 H57         26.1430    -2.0820     7.3520 h1         1 KXX       0.037033
    107 H58         24.0740    -1.1560     2.6660 h1         1 KXX       0.031033
    108 H59         23.2830     0.4320     2.7320 h1         1 KXX       0.031033
    109 H60         24.9170     0.2140     3.4090 h1         1 KXX       0.031033
    110 H61         19.9460     1.2600     5.4620 hc         1 KXX       0.033033
    111 H62         20.4390     0.1540     4.1570 hc         1 KXX       0.033033
    112 H63         18.9280    -0.1290     5.0420 hc         1 KXX       0.033033
    113 H64         20.1110    -4.0400     8.6500 hc         1 KXX       0.041033
    114 H65         19.5660    -2.4160     8.2990 hc         1 KXX       0.041033
    115 H66         19.0390    -3.7620     7.2820 hc         1 KXX       0.041033
    116 H67         23.4280    -4.2650    13.1260 ho         1 KXX       0.446000
    117 H68         31.5740     0.9940    13.3790 ho         1 KXX       0.517000
    118 H69         24.5130     4.3940     5.6490 ho         1 KXX       0.470000
    119 C02         23.5140    -5.9250     7.2810 c3         1 KXX      -0.063400
    120 C46         29.4750     3.1720    11.6960 c3         1 KXX       0.147900
    121 C01         23.8880    -7.1060     8.2010 c3         1 KXX      -0.093100
    122 C52         26.7100    -1.6090     6.5410 c3         1 KXX       0.138900
    123 C54         23.9350    -0.2580     3.2810 c3         1 KXX       0.143900
    124 H9          22.9130    -6.3110     6.4470 hc         1 KXX       0.053200
    125 H10         24.4300    -5.5110     6.8400 hc         1 KXX       0.053200
@<TRIPOS>BOND
     1     1     2 1   
     2     1     3 1   
     3     1    41 2   
     4     2    39 1   
     5     2    42 2   
     6     3     5 1   
     7     3    40 1   
     8     3    49 1   
     9     4     7 1   
    10     4    14 1   
    11     4    40 1   
    12     4    52 1   
    13     5     6 1   
    14     5    36 1   
    15     5    53 1   
    16     6     7 1   
    17     6    54 1   
    18     6    55 1   
    19     7    50 1   
    20     7    56 1   
    21     8     9 1   
    22     8    25 1   
    23     8    60 1   
    24     8   119 1   
    25     9    10 2   
    26     9    61 1   
    27    10    11 1   
    28    10    38 1   
    29    11    12 1   
    30    11    62 1   
    31    11    63 1   
    32    12    13 1   
    33    12    37 1   
    34    12    64 1   
    35    13    14 1   
    36    13    65 1   
    37    13    66 1   
    38    14    51 1   
    39    14    67 1   
    40    15    16 1   
    41    15    39 1   
    42    15    68 1   
    43    15    69 1   
    44    16    17 1   
    45    16    70 1   
    46    16    71 1   
    47    17    18 1   
    48    17    72 1   
    49    17    73 1   
    50    18    19 1   
    51    18    74 1   
    52    18    75 1   
    53    19    20 1   
    54    19    39 1   
    55    19    76 1   
    56    20    43 2   
    57    20    44 1   
    58    21    22 1   
    59    21    27 1   
    60    21    44 1   
    61    21    77 1   
    62    22    23 1   
    63    22    26 1   
    64    22    78 1   
    65    23    24 1   
    66    23    46 1   
    67    23    79 1   
    68    24    25 1   
    69    24    80 1   
    70    24    81 1   
    71    25    45 2   
    72    26    82 1   
    73    26    83 1   
    74    26    84 1   
    75    27    28 2   
    76    27    35 1   
    77    28    29 1   
    78    28    85 1   
    79    29    30 1   
    80    29    34 1   
    81    29    86 1   
    82    30    31 1   
    83    30    87 1   
    84    30    88 1   
    85    31    32 1   
    86    31    89 1   
    87    31    90 1   
    88    32    33 1   
    89    32    48 1   
    90    32    91 1   
    91    33    34 1   
    92    33    47 1   
    93    33    92 1   
    94    34    93 1   
    95    34    94 1   
    96    35    98 1   
    97    35    99 1   
    98    35   100 1   
    99    36   101 1   
   100    36   102 1   
   101    36   103 1   
   102    37   110 1   
   103    37   111 1   
   104    37   112 1   
   105    38   113 1   
   106    38   114 1   
   107    38   115 1   
   108    46   116 1   
   109    47   120 1   
   110    48   117 1   
   111    49   118 1   
   112    50   122 1   
   113    51   123 1   
   114    57   121 1   
   115    58   121 1   
   116    59   121 1   
   117    95   120 1   
   118    96   120 1   
   119    97   120 1   
   120   104   122 1   
   121   105   122 1   
   122   106   122 1   
   123   107   123 1   
   124   108   123 1   
   125   109   123 1   
   126   119   121 1   
   127   119   124 1   
   128   119   125 1   
@<TRIPOS>SUBSTRUCTURE
     1 KXX         1 TEMP              0 ****  ****    0 ROOT
