@<TRIPOS>MOLECULE
KXX
  125   128     1     0     0
SMALL
abcg2


@<TRIPOS>ATOM
      1 C16         23.5630     4.1910     7.4280 c          1 KXX       0.494100
      2 C18         23.5840     4.0190     8.9470 c          1 KXX       0.528100
      3 C14         24.3400     3.1960     6.5230 c6         1 KXX       0.320000
      4 C10         23.7420     1.0150     5.6260 c6         1 KXX       0.155300
      5 C13         25.6300     2.6550     7.1430 c6         1 KXX      -0.058700
      6 C12         26.0770     1.3990     6.3920 c6         1 KXX      -0.109400
      7 C11         24.9590     0.3640     6.2730 c6         1 KXX       0.149300
      8 C03         23.1550    -4.9160     7.8960 c3         1 KXX      -0.118500
      9 C04         22.3890    -3.9370     7.0380 c2         1 KXX      -0.232200
     10 C05         21.1050    -3.5790     7.1400 c2         1 KXX      -0.101400
     11 C06         20.5410    -2.4880     6.2640 c3         1 KXX      -0.044200
     12 C07         20.6630    -1.0900     6.9240 c3         1 KXX      -0.052700
     13 C08         22.0890    -0.5170     6.8310 c3         1 KXX      -0.073400
     14 C09         22.4450     0.1900     5.5320 c3         1 KXX       0.184300
     15 C21         21.4710     2.7240     8.8700 c6         1 KXX       0.101000
     16 C22         20.1450     3.2940     9.3530 c6         1 KXX      -0.099400
     17 C23         20.0430     3.2090    10.8750 c6         1 KXX      -0.078400
     18 C24         21.2340     3.9090    11.5260 c6         1 KXX      -0.079400
     19 C25         22.5690     3.3420    11.0220 c6         1 KXX       0.043700
     20 C26         22.8840     1.9860    11.6530 c          1 KXX       0.584100
     21 C29         23.8660    -0.1850    11.3630 c3         1 KXX       0.198500
     22 C30         23.1950    -1.3060    10.5590 c3         1 KXX      -0.085700
     23 C31         23.7320    -2.6680    11.0530 c3         1 KXX       0.183300
     24 C32         23.2240    -3.8470    10.2380 c3         1 KXX      -0.186400
     25 C33         23.9100    -4.0560     8.9090 c          1 KXX       0.581100
     26 C36         21.6750    -1.2010    10.6670 c3         1 KXX      -0.086100
     27 C37         25.3720    -0.1950    11.3580 c2         1 KXX      -0.129400
     28 C38         26.0000    -0.3170    12.5300 c2         1 KXX      -0.199200
     29 C39         27.4690    -0.4480    12.7880 c6         1 KXX      -0.027500
     30 C40         27.7940    -1.8610    13.3050 c6         1 KXX      -0.072400
     31 C41         29.2770    -2.0090    13.6460 c6         1 KXX      -0.073400
     32 C42         29.7170    -0.9570    14.6490 c6         1 KXX       0.172300
     33 C43         29.4220     0.4420    14.1300 c6         1 KXX       0.130300
     34 C44         27.9410     0.6060    13.8040 c6         1 KXX      -0.093400
     35 C48         26.0400    -0.1070    10.0170 c3         1 KXX      -0.057900
     36 C50         26.7430     3.6960     7.2150 c3         1 KXX      -0.084100
     37 C55         19.5970    -0.1340     6.3870 c3         1 KXX      -0.088100
     38 C56         20.1290    -4.1590     8.1250 c3         1 KXX      -0.061900
     39 N20         22.6030     3.3500     9.5620 n          1 KXX      -0.370800
     40 O15         23.3650     2.1710     6.3970 os         1 KXX      -0.512000
     41 O17         23.0070     5.1460     6.9400 o          1 KXX      -0.483100
     42 O19         24.5260     4.5820     9.5070 o          1 KXX      -0.596100
     43 O27         22.6990     1.7910    12.8340 o          1 KXX      -0.491000
     44 O28         23.4120     1.1030    10.8080 os         1 KXX      -0.437100
     45 O34         24.9990    -3.5760     8.6590 o          1 KXX      -0.539100
     46 O35         23.3600    -2.9200    12.4180 oh         1 KXX      -0.669000
     47 O45         29.8660     1.3510    15.1400 os         1 KXX      -0.477000
     48 O47         31.1140    -1.1200    14.9050 oh         1 KXX      -0.726000
     49 O49         24.6130     3.8000     5.2980 oh         1 KXX      -0.650000
     50 O51         25.3430    -0.7340     5.4590 os         1 KXX      -0.449000
     51 O53         22.4950    -0.7560     4.4680 os         1 KXX      -0.447000
     52 H1          24.0210     1.3380     4.6190 h1         1 KXX       0.067700
     53 H2          25.3620     2.3550     8.1590 hc         1 KXX       0.065700
     54 H3          26.9310     0.9700     6.9190 hc         1 KXX       0.060700
     55 H4          26.4120     1.6640     5.3860 hc         1 KXX       0.060700
     56 H5          24.6880     0.0020     7.2710 h1         1 KXX       0.044700
     57 H6          25.4420    -7.4830     7.2530 hc         1 KXX       0.035033
     58 H7          25.4280    -6.4180     8.6600 hc         1 KXX       0.035033
     59 H8          24.0790    -7.5220     8.3760 hc         1 KXX       0.035033
     60 H11         22.4620    -5.5520     8.4490 hc         1 KXX       0.063700
     61 H12         22.9970    -3.4480     6.2820 ha         1 KXX       0.192000
     62 H13         19.4840    -2.6930     6.0770 hc         1 KXX       0.058200
     63 H14         21.0470    -2.4630     5.3000 hc         1 KXX       0.058200
     64 H15         20.4600    -1.2220     7.9900 hc         1 KXX       0.039700
     65 H16         22.8120    -1.3120     7.0190 hc         1 KXX       0.055700
     66 H17         22.2240     0.2110     7.6320 hc         1 KXX       0.055700
     67 H18         21.6680     0.9260     5.3010 h1         1 KXX       0.041700
     68 H19         21.5960     2.8520     7.8000 h1         1 KXX       0.065700
     69 H20         21.5120     1.6530     9.0710 h1         1 KXX       0.065700
     70 H21         20.0610     4.3370     9.0340 hc         1 KXX       0.055200
     71 H22         19.3370     2.7360     8.8760 hc         1 KXX       0.055200
     72 H23         19.1130     3.6620    11.2220 hc         1 KXX       0.050200
     73 H24         20.0210     2.1570    11.1800 hc         1 KXX       0.050200
     74 H25         21.2060     3.8190    12.6100 hc         1 KXX       0.068200
     75 H26         21.2160     4.9730    11.2800 hc         1 KXX       0.068200
     76 H27         23.3820     3.9880    11.3560 h1         1 KXX       0.113700
     77 H28         23.5110    -0.2240    12.3890 h1         1 KXX       0.075700
     78 H29         23.4900    -1.2070     9.5110 hc         1 KXX       0.070700
     79 H30         24.8200    -2.6580    10.9810 h1         1 KXX       0.056700
     80 H31         22.1450    -3.8200    10.0990 hc         1 KXX       0.079700
     81 H32         23.4240    -4.7670    10.8020 hc         1 KXX       0.079700
     82 H33         21.3250    -0.2340    10.3090 hc         1 KXX       0.042033
     83 H34         21.1820    -1.9640    10.0690 hc         1 KXX       0.042033
     84 H35         21.3540    -1.3190    11.7030 hc         1 KXX       0.042033
     85 H36         25.3840    -0.3650    13.4270 ha         1 KXX       0.170000
     86 H37         28.0260    -0.2960    11.8610 hc         1 KXX       0.056700
     87 H38         27.1890    -2.0610    14.1950 hc         1 KXX       0.045200
     88 H39         27.5080    -2.5990    12.5530 hc         1 KXX       0.045200
     89 H40         29.4800    -3.0020    14.0530 hc         1 KXX       0.057200
     90 H41         29.8800    -1.8990    12.7390 hc         1 KXX       0.057200
     91 H42         29.1590    -1.0920    15.5860 h1         1 KXX       0.043700
     92 H43         30.0230     0.6050    13.2240 h1         1 KXX       0.045700
     93 H44         27.7510     1.6060    13.4110 hc         1 KXX       0.054200
     94 H45         27.3650     0.5040    14.7300 hc         1 KXX       0.054200
     95 H46         30.5140     3.2370    15.5110 h1         1 KXX       0.033367
     96 H47         30.8210     2.6730    13.8490 h1         1 KXX       0.033367
     97 H48         29.1790     3.1570    14.3410 h1         1 KXX       0.033367
     98 H49         27.1210    -0.0210    10.0970 hc         1 KXX       0.049367
     99 H50         25.8140    -0.9850     9.4080 hc         1 KXX       0.049367
    100 H51         25.6700     0.7620     9.4720 hc         1 KXX       0.049367
    101 H52         26.4110     4.6010     7.7230 hc         1 KXX       0.047700
    102 H53         27.5890     3.2880     7.7700 hc         1 KXX       0.047700
    103 H54         27.0870     3.9640     6.2160 hc         1 KXX       0.047700
    104 H55         26.3610    -2.4850     5.4150 h1         1 KXX       0.037033
    105 H56         27.2230    -1.1840     6.2640 h1         1 KXX       0.037033
    106 H57         25.8360    -1.9920     7.0400 h1         1 KXX       0.037033
    107 H58         22.2180    -1.0360     2.4810 h1         1 KXX       0.031033
    108 H59         21.2740     0.3100     3.1680 h1         1 KXX       0.031033
    109 H60         23.0200     0.4970     2.8760 h1         1 KXX       0.031033
    110 H61         19.7090     0.8650     6.8160 hc         1 KXX       0.033033
    111 H62         19.6490    -0.0410     5.3000 hc         1 KXX       0.033033
    112 H63         18.6010    -0.5010     6.6400 hc         1 KXX       0.033033
    113 H64         20.5590    -4.9260     8.7650 hc         1 KXX       0.041033
    114 H65         19.7180    -3.3730     8.7660 hc         1 KXX       0.041033
    115 H66         19.2810    -4.5950     7.5890 hc         1 KXX       0.041033
    116 H67         23.9580    -2.4270    12.9940 ho         1 KXX       0.446000
    117 H68         31.3940    -0.3410    15.4060 ho         1 KXX       0.517000
    118 H69         23.8790     4.4020     5.0920 ho         1 KXX       0.470000
    119 C02         24.0910    -5.7940     7.0610 c3         1 KXX      -0.063400
    120 C46         30.1020     2.6730    14.6760 c3         1 KXX       0.147900
    121 C01         24.8020    -6.8640     7.8850 c3         1 KXX      -0.093100
    122 C52         26.2420    -1.6370     6.0900 c3         1 KXX       0.138900
    123 C54         22.2410    -0.2060     3.1870 c3         1 KXX       0.143900
    124 H9          23.4940    -6.2660     6.2750 hc         1 KXX       0.053200
    125 H10         24.8220    -5.1550     6.5610 hc         1 KXX       0.053200
@<TRIPOS>BOND
     1     1     2 1   
     2     1     3 1   
     3     1    41 2   
     4     2    39 1   
     5     2    42 2   
     6     3     5 1   
     7     3    40 1   
     8     3    49 1   
     9     4     7 1   
    10     4    14 1   
    11     4    40 1   
    12     4    52 1   
    13     5     6 1   
    14     5    36 1   
    15     5    53 1   
    16     6     7 1   
    17     6    54 1   
    18     6    55 1   
    19     7    50 1   
    20     7    56 1   
    21     8     9 1   
    22     8    25 1   
    23     8    60 1   
    24     8   119 1   
    25     9    10 2   
    26     9    61 1   
    27    10    11 1   
    28    10    38 1   
    29    11    12 1   
    30    11    62 1   
    31    11    63 1   
    32    12    13 1   
    33    12    37 1   
    34    12    64 1   
    35    13    14 1   
    36    13    65 1   
    37    13    66 1   
    38    14    51 1   
    39    14    67 1   
    40    15    16 1   
    41    15    39 1   
    42    15    68 1   
    43    15    69 1   
    44    16    17 1   
    45    16    70 1   
    46    16    71 1   
    47    17    18 1   
    48    17    72 1   
    49    17    73 1   
    50    18    19 1   
    51    18    74 1   
    52    18    75 1   
    53    19    20 1   
    54    19    39 1   
    55    19    76 1   
    56    20    43 2   
    57    20    44 1   
    58    21    22 1   
    59    21    27 1   
    60    21    44 1   
    61    21    77 1   
    62    22    23 1   
    63    22    26 1   
    64    22    78 1   
    65    23    24 1   
    66    23    46 1   
    67    23    79 1   
    68    24    25 1   
    69    24    80 1   
    70    24    81 1   
    71    25    45 2   
    72    26    82 1   
    73    26    83 1   
    74    26    84 1   
    75    27    28 2   
    76    27    35 1   
    77    28    29 1   
    78    28    85 1   
    79    29    30 1   
    80    29    34 1   
    81    29    86 1   
    82    30    31 1   
    83    30    87 1   
    84    30    88 1   
    85    31    32 1   
    86    31    89 1   
    87    31    90 1   
    88    32    33 1   
    89    32    48 1   
    90    32    91 1   
    91    33    34 1   
    92    33    47 1   
    93    33    92 1   
    94    34    93 1   
    95    34    94 1   
    96    35    98 1   
    97    35    99 1   
    98    35   100 1   
    99    36   101 1   
   100    36   102 1   
   101    36   103 1   
   102    37   110 1   
   103    37   111 1   
   104    37   112 1   
   105    38   113 1   
   106    38   114 1   
   107    38   115 1   
   108    46   116 1   
   109    47   120 1   
   110    48   117 1   
   111    49   118 1   
   112    50   122 1   
   113    51   123 1   
   114    57   121 1   
   115    58   121 1   
   116    59   121 1   
   117    95   120 1   
   118    96   120 1   
   119    97   120 1   
   120   104   122 1   
   121   105   122 1   
   122   106   122 1   
   123   107   123 1   
   124   108   123 1   
   125   109   123 1   
   126   119   121 1   
   127   119   124 1   
   128   119   125 1   
@<TRIPOS>SUBSTRUCTURE
     1 KXX         1 TEMP              0 ****  ****    0 ROOT
