@<TRIPOS>MOLECULE
KXZ
   45    46     1     0     0
SMALL
No Charge or Current Charge


@<TRIPOS>ATOM
      1 Cl          -3.9150    -1.1630     2.1270 cl         1 KXZ      -0.206000
      2 C11         -3.4320    -0.7320     0.4850 ca         1 KXZ       0.129000
      3 C10         -4.2570     0.0660    -0.3550 cp         1 KXZ      -0.037000
      4 C13         -5.6040     0.5570     0.0680 cp         1 KXZ      -0.031000
      5 C18         -5.9280     1.9330    -0.0240 ca         1 KXZ      -0.090500
      6 C17         -7.1970     2.4050     0.3550 ca         1 KXZ      -0.115500
      7 C16         -8.1680     1.5080     0.8270 ca         1 KXZ      -0.109000
      8 C15         -7.8710     0.1380     0.9150 ca         1 KXZ      -0.115500
      9 C14         -6.6020    -0.3330     0.5350 ca         1 KXZ      -0.090500
     10 C9          -3.7620     0.4100    -1.6370 ca         1 KXZ      -0.098000
     11 C8          -2.5040    -0.0350    -2.0760 ca         1 KXZ      -0.114000
     12 C12         -2.1740    -1.1730     0.0410 ca         1 KXZ      -0.085000
     13 C7          -1.7030    -0.8330    -1.2400 ca         1 KXZ      -0.069300
     14 C6          -0.3380    -1.3200    -1.7080 c3         1 KXZ       0.206100
     15 N1           0.7370    -0.5620    -1.0440 n7         1 KXZ      -0.868400
     16 C5           2.1040    -0.9340    -1.4430 c3         1 KXZ       0.161800
     17 C4           3.1300    -0.0770    -0.6780 c3         1 KXZ      -0.103400
     18 C3           4.5840    -0.4220    -1.0580 c3         1 KXZ       0.103000
     19 N            5.5550     0.4110    -0.3450 ns         1 KXZ      -0.513900
     20 C2           5.9690     0.2080     0.9520 c          1 KXZ       0.642100
     21 O2           5.5600    -0.7240     1.6290 o          1 KXZ      -0.644100
     22 C1           6.9470     1.2330     1.4800 c3         1 KXZ      -0.304400
     23 C            8.3110     0.6160     1.2710 c          1 KXZ       0.735000
     24 O1           8.8590     0.7960     0.1950 o          1 KXZ      -0.723500
     25 O            8.7810    -0.0660     2.1670 o          1 KXZ      -0.723500
     26 H1          -5.1840     2.6380    -0.3870 ha         1 KXZ       0.118000
     27 H2          -7.4260     3.4660     0.2830 ha         1 KXZ       0.110500
     28 H3          -9.1500     1.8720     1.1210 ha         1 KXZ       0.108000
     29 H4          -8.6250    -0.5600     1.2730 ha         1 KXZ       0.110500
     30 H5          -6.3910    -1.3980     0.5940 ha         1 KXZ       0.118000
     31 H6          -4.3700     1.0210    -2.3010 ha         1 KXZ       0.115000
     32 H7          -2.1530     0.2420    -3.0680 ha         1 KXZ       0.114000
     33 H8          -1.5550    -1.7760     0.7010 ha         1 KXZ       0.154000
     34 H9          -0.2460    -2.3920    -1.4830 h1         1 KXZ       0.038200
     35 H10         -0.2680    -1.2090    -2.7990 h1         1 KXZ       0.038200
     36 H11          0.5980     0.4320    -1.2640 hn         1 KXZ       0.410000
     37 H13          2.2900    -1.9950    -1.2250 h1         1 KXZ       0.030200
     38 H14          2.2430    -0.7830    -2.5220 h1         1 KXZ       0.030200
     39 H15          2.9470     0.9840    -0.8880 hc         1 KXZ       0.045200
     40 H16          2.9920    -0.2250     0.4000 hc         1 KXZ       0.045200
     41 H17          4.7850    -1.4780    -0.8360 h1         1 KXZ       0.047700
     42 H18          4.7250    -0.2710    -2.1370 h1         1 KXZ       0.047700
     43 H19          5.9580     1.2050    -0.8280 hn         1 KXZ       0.303500
     44 H20          6.8530     2.1290     0.8540 hc         1 KXZ       0.039700
     45 H21          6.7380     1.3530     2.5490 hc         1 KXZ       0.039700
@<TRIPOS>BOND
     1     1     2 1   
     2     2     3 ar  
     3     2    12 ar  
     4     3     4 1   
     5     3    10 ar  
     6     4     5 ar  
     7     4     9 ar  
     8     5     6 ar  
     9     5    26 1   
    10     6     7 ar  
    11     6    27 1   
    12     7     8 ar  
    13     7    28 1   
    14     8     9 ar  
    15     8    29 1   
    16     9    30 1   
    17    10    11 ar  
    18    10    31 1   
    19    11    13 ar  
    20    11    32 1   
    21    12    13 ar  
    22    12    33 1   
    23    13    14 1   
    24    14    15 1   
    25    14    34 1   
    26    14    35 1   
    27    15    16 1   
    28    15    36 1   
    29    16    17 1   
    30    16    37 1   
    31    16    38 1   
    32    17    18 1   
    33    17    39 1   
    34    17    40 1   
    35    18    19 1   
    36    18    41 1   
    37    18    42 1   
    38    19    20 1   
    39    19    43 1   
    40    20    21 2   
    41    20    22 1   
    42    22    23 1   
    43    22    44 1   
    44    22    45 1   
    45    23    24 1   
    46    23    25 1   
@<TRIPOS>SUBSTRUCTURE
     1 KXZ         1 TEMP              0 ****  ****    0 ROOT
