@<TRIPOS>MOLECULE
KXZ
   45    46     1     0     0
SMALL
bcc


@<TRIPOS>ATOM
      1 CL          -3.5230     0.4530     2.1620 cl         1 KXZ      -0.114400
      2 C11         -3.2820     0.1480     0.4690 ca         1 KXZ       0.037400
      3 C10         -4.3510     0.2410    -0.4210 cp         1 KXZ      -0.037000
      4 C13         -5.7370     0.5520    -0.0110 cp         1 KXZ      -0.031000
      5 C18         -6.4030     1.6330    -0.5880 ca         1 KXZ      -0.108500
      6 C17         -7.7180     1.9180    -0.2460 ca         1 KXZ      -0.133500
      7 C16         -8.3860     1.1230     0.6750 ca         1 KXZ      -0.127000
      8 C15         -7.7320     0.0400     1.2500 ca         1 KXZ      -0.133500
      9 C14         -6.4180    -0.2430     0.9100 ca         1 KXZ      -0.108500
     10 C9          -4.0600     0.0410    -1.7710 ca         1 KXZ      -0.116000
     11 C8          -2.7780    -0.2470    -2.2070 ca         1 KXZ      -0.132000
     12 C12         -1.9940    -0.1430     0.0470 ca         1 KXZ      -0.103000
     13 C7          -1.7280    -0.3520    -1.3020 ca         1 KXZ      -0.069300
     14 C6          -0.3440    -0.7170    -1.7730 c3         1 KXZ       0.206100
     15 N1           0.6890    -0.1730    -0.9210 n7         1 KXZ      -0.813200
     16 C5           2.0230    -0.5890    -1.3120 c3         1 KXZ       0.161800
     17 C4           3.0710     0.0090    -0.3890 c3         1 KXZ      -0.103400
     18 C3           4.4810    -0.3970    -0.7960 c3         1 KXZ       0.103000
     19 N            5.4790     0.1710     0.0790 ns         1 KXZ      -0.580900
     20 C2           6.4040    -0.5340     0.7550 c          1 KXZ       0.709100
     21 O2           6.4910    -1.7560     0.6920 o          1 KXZ      -0.644100
     22 C1           7.3450     0.2790     1.6010 c3         1 KXZ      -0.304400
     23 C            8.7280     0.4360     0.9180 c          1 KXZ       0.945600
     24 O1           8.7440     0.3450    -0.3220 o          1 KXZ      -0.828800
     25 O            9.6880     0.6690     1.6730 o          1 KXZ      -0.828800
     26 H1          -5.8840     2.2630    -1.3000 ha         1 KXZ       0.136000
     27 H2          -8.2190     2.7640    -0.7000 ha         1 KXZ       0.128500
     28 H3          -9.4120     1.3430     0.9420 ha         1 KXZ       0.126000
     29 H4          -8.2510    -0.5910     1.9600 ha         1 KXZ       0.128500
     30 H5          -5.9250    -1.0990     1.3520 ha         1 KXZ       0.136000
     31 H6          -4.8660     0.1040    -2.4920 ha         1 KXZ       0.133000
     32 H7          -2.5970    -0.3940    -3.2650 ha         1 KXZ       0.132000
     33 H8          -1.1880    -0.1950     0.7660 ha         1 KXZ       0.172000
     34 H9          -0.2520    -1.8080    -1.7600 h1         1 KXZ       0.038200
     35 H10         -0.2370    -0.4240    -2.8290 h1         1 KXZ       0.038200
     36 H11          0.6360     0.8390    -0.9410 hn         1 KXZ       0.354800
     37 H13          2.0690    -1.6810    -1.2540 h1         1 KXZ       0.030200
     38 H14          2.2560    -0.3270    -2.3570 h1         1 KXZ       0.030200
     39 H15          2.9850     1.1020    -0.3990 hc         1 KXZ       0.045200
     40 H16          2.8820    -0.3150     0.6370 hc         1 KXZ       0.045200
     41 H17          4.5810    -1.4810    -0.7640 h1         1 KXZ       0.047700
     42 H18          4.6760    -0.0890    -1.8290 h1         1 KXZ       0.047700
     43 H19          5.4920     1.1730     0.1680 hn         1 KXZ       0.303500
     44 H20          6.9470     1.2790     1.7980 hc         1 KXZ       0.039700
     45 H21          7.4600    -0.2090     2.5710 hc         1 KXZ       0.039700
@<TRIPOS>BOND
     1     1     2 1   
     2     2     3 ar  
     3     2    12 ar  
     4     3     4 1   
     5     3    10 ar  
     6     4     5 ar  
     7     4     9 ar  
     8     5     6 ar  
     9     5    26 1   
    10     6     7 ar  
    11     6    27 1   
    12     7     8 ar  
    13     7    28 1   
    14     8     9 ar  
    15     8    29 1   
    16     9    30 1   
    17    10    11 ar  
    18    10    31 1   
    19    11    13 ar  
    20    11    32 1   
    21    12    13 ar  
    22    12    33 1   
    23    13    14 1   
    24    14    15 1   
    25    14    34 1   
    26    14    35 1   
    27    15    16 1   
    28    15    36 1   
    29    16    17 1   
    30    16    37 1   
    31    16    38 1   
    32    17    18 1   
    33    17    39 1   
    34    17    40 1   
    35    18    19 1   
    36    18    41 1   
    37    18    42 1   
    38    19    20 1   
    39    19    43 1   
    40    20    21 2   
    41    20    22 1   
    42    22    23 1   
    43    22    44 1   
    44    22    45 1   
    45    23    24 1   
    46    23    25 1   
@<TRIPOS>SUBSTRUCTURE
     1 KXZ         1 TEMP              0 ****  ****    0 ROOT
