@<TRIPOS>MOLECULE
KY1
   24    24     1     0     0
SMALL
bcc


@<TRIPOS>ATOM
      1 CA          -2.5370     0.5170    -0.0580 c3         1 KY1      -0.204400
      2 CB          -1.2190    -0.2330    -0.0160 c3         1 KY1      -0.144400
      3 CG           2.5280     0.7990     0.0750 ca         1 KY1       0.240600
      4 CD1          3.7650     0.1210     0.0620 ca         1 KY1      -0.252000
      5 CE1          3.8320    -1.2510     0.0200 ca         1 KY1      -0.063000
      6 CZ           2.6660    -2.0200    -0.0080 ca         1 KY1      -0.219000
      7 CE2          1.4500    -1.3750    -0.0010 ca         1 KY1      -0.033000
      8 CD2          1.3360     0.0250     0.0340 ca         1 KY1      -0.257600
      9 C           -3.7870    -0.3840    -0.0600 c          1 KY1       0.926600
     10 O           -3.6290    -1.6080     0.1140 o          1 KY1      -0.847300
     11 OXT         -4.8750     0.2050    -0.2260 o          1 KY1      -0.847300
     12 C1           0.0030     0.6580     0.0120 c          1 KY1       0.585700
     13 O2          -0.1260     1.8750     0.0130 o          1 KY1      -0.585100
     14 HAC1        -2.6150     1.1920     0.8010 hc         1 KY1       0.031200
     15 HAC2        -2.5790     1.1670    -0.9360 hc         1 KY1       0.031200
     16 HBC1        -1.1410    -0.9020    -0.8770 hc         1 KY1       0.065200
     17 HBC2        -1.1880    -0.8910     0.8570 hc         1 KY1       0.065200
     18 HD1          4.6770     0.7070     0.0870 ha         1 KY1       0.115000
     19 HE1          4.8010    -1.7340     0.0090 ha         1 KY1       0.113000
     20 HZ           2.7150    -3.1000    -0.0380 ha         1 KY1       0.127000
     21 HE2          0.5530    -1.9780    -0.0290 ha         1 KY1       0.148000
     22 H1N1         3.4010     2.6330    -0.0240 hn         1 KY1       0.432300
     23 H1N2         1.6820     2.6490    -0.0160 hn         1 KY1       0.432300
     24 N1           2.5370     2.1500     0.1560 nv         1 KY1      -0.861200
@<TRIPOS>BOND
     1     1     2 1   
     2     1     9 1   
     3     1    14 1   
     4     1    15 1   
     5     2    12 1   
     6     2    16 1   
     7     2    17 1   
     8     3     4 ar  
     9     3     8 ar  
    10     3    24 1   
    11     4     5 ar  
    12     4    18 1   
    13     5     6 ar  
    14     5    19 1   
    15     6     7 ar  
    16     6    20 1   
    17     7     8 ar  
    18     7    21 1   
    19     8    12 1   
    20     9    10 1   
    21     9    11 1   
    22    12    13 2   
    23    22    24 1   
    24    23    24 1   
@<TRIPOS>SUBSTRUCTURE
     1 KY1         1 TEMP              0 ****  ****    0 ROOT
