@<TRIPOS>MOLECULE
KY1
   24    24     1     0     0
SMALL
No Charge or Current Charge


@<TRIPOS>ATOM
      1 CA          -2.0720     0.4870     0.4470 c3         1 KY1      -0.204400
      2 CB          -1.3280    -0.1790    -0.7470 c3         1 KY1      -0.144400
      3 CG           2.2440     0.7520     0.1300 ca         1 KY1       0.379000
      4 CD1          3.4190     0.1920     0.6480 ca         1 KY1      -0.234000
      5 CE1          3.6560    -1.1860     0.5440 ca         1 KY1      -0.045000
      6 CZ           2.7090    -2.0050    -0.0850 ca         1 KY1      -0.201000
      7 CE2          1.5270    -1.4510    -0.6040 ca         1 KY1      -0.015000
      8 CD2          1.2820    -0.0630    -0.4940 ca         1 KY1      -0.257600
      9 C           -3.4010    -0.2350     0.7270 c          1 KY1       0.716000
     10 O           -3.3880    -1.1860     1.4930 o          1 KY1      -0.742000
     11 OXT         -4.3960     0.1380     0.1260 o          1 KY1      -0.742000
     12 C1           0.0100     0.5230    -1.0450 c          1 KY1       0.585700
     13 O2           0.0310     1.5430    -1.7280 o          1 KY1      -0.585100
     14 HAC1        -1.3990     0.3950     1.3080 hc         1 KY1       0.031200
     15 HAC2        -2.2590     1.5250     0.1440 hc         1 KY1       0.031200
     16 HBC1        -1.9670    -0.1250    -1.6360 hc         1 KY1       0.065200
     17 HBC2        -1.1560    -1.2230    -0.4690 hc         1 KY1       0.065200
     18 HD1          4.1570     0.8240     1.1360 ha         1 KY1       0.097000
     19 HE1          4.5710    -1.6170     0.9470 ha         1 KY1       0.095000
     20 HZ           2.8910    -3.0740    -0.1750 ha         1 KY1       0.109000
     21 HE2          0.8150    -2.1050    -1.1040 ha         1 KY1       0.130000
     22 H1N1         2.8660     2.6680     0.4990 hn         1 KY1       0.487500
     23 H1N2         1.3770     2.5270    -0.3660 hn         1 KY1       0.487500
     24 N1           2.0600     2.0960     0.2570 nv         1 KY1      -1.110000
@<TRIPOS>BOND
     1     1     2 1   
     2     1     9 1   
     3     1    14 1   
     4     1    15 1   
     5     2    12 1   
     6     2    16 1   
     7     2    17 1   
     8     3     4 ar  
     9     3     8 ar  
    10     3    24 1   
    11     4     5 ar  
    12     4    18 1   
    13     5     6 ar  
    14     5    19 1   
    15     6     7 ar  
    16     6    20 1   
    17     7     8 ar  
    18     7    21 1   
    19     8    12 1   
    20     9    10 1   
    21     9    11 1   
    22    12    13 2   
    23    22    24 1   
    24    23    24 1   
@<TRIPOS>SUBSTRUCTURE
     1 KY1         1 TEMP              0 ****  ****    0 ROOT
