@<TRIPOS>MOLECULE
KY4
   36    37     1     0     0
SMALL
No Charge or Current Charge


@<TRIPOS>ATOM
      1 N           -2.8050    -2.3150    -1.4820 n8         1 KY4      -0.997200
      2 SG1         -3.8150    -3.4620     1.3270 sh         1 KY4      -0.445800
      3 CB1         -2.6290    -2.0560     1.0140 c3         1 KY4       0.031600
      4 CA1         -2.8200    -1.3300    -0.3440 c3         1 KY4       0.142200
      5 C1          -1.8180    -0.1700    -0.5000 cc         1 KY4       0.510900
      6 N2          -0.4900    -0.3540    -0.4150 nd         1 KY4      -0.679300
      7 N3          -2.1860     1.1440    -0.7620 n          1 KY4      -0.298300
      8 C2          -1.0650     1.9310    -0.8530 c          1 KY4       0.539200
      9 O2          -0.9950     3.1370    -1.0580 o          1 KY4      -0.491000
     10 CA2         -0.0010     0.9310    -0.6310 cd         1 KY4       0.047400
     11 CA3         -3.5680     1.6870    -0.8830 c3         1 KY4      -0.058000
     12 CB2          1.3490     1.2180    -0.6080 ce         1 KY4      -0.118200
     13 CG2          2.5300     0.3260    -0.3780 ca         1 KY4      -0.076800
     14 CD1          3.6740     0.8210     0.2890 ca         1 KY4       0.178000
     15 CD2          2.5400    -1.0070    -0.8440 ca         1 KY4      -0.037000
     16 CE1          4.7950    -0.0040     0.5010 ca         1 KY4       0.008000
     17 CE2          3.6610    -1.8300    -0.6320 ca         1 KY4      -0.156000
     18 CZ           4.7870    -1.3340     0.0400 ca         1 KY4       0.128100
     19 OH           5.8680    -2.1450     0.2370 oh         1 KY4      -0.529100
     20 C           -4.2400     2.0210     0.4680 c          1 KY4       0.713000
     21 O           -4.1710     1.1940     1.3660 o          1 KY4      -0.713500
     22 F1           5.8840     0.4810     1.1480 f          1 KY4      -0.181000
     23 F2           3.6930     2.0980     0.7390 f          1 KY4      -0.161000
     24 HN1         -1.8710    -2.7380    -1.5460 hn         1 KY4       0.401500
     25 HN2         -3.4200    -3.1020    -1.2440 hn         1 KY4       0.401500
     26 HG1         -3.2030    -4.3660     0.5240 hs         1 KY4       0.178800
     27 HB11        -2.7510    -1.3200     1.8210 h1         1 KY4       0.109200
     28 HB12        -1.6040    -2.4440     1.0810 h1         1 KY4       0.109200
     29 HA1         -3.8280    -0.8970    -0.3130 h1         1 KY4       0.094700
     30 HA31        -3.5430     2.6010    -1.4900 h1         1 KY4       0.047200
     31 HA32        -4.2020     0.9650    -1.4110 h1         1 KY4       0.047200
     32 HB2          1.5900     2.2740    -0.7370 ha         1 KY4       0.202000
     33 HD2          1.6840    -1.4070    -1.3820 ha         1 KY4       0.163000
     34 HE2          3.6560    -2.8550    -0.9960 ha         1 KY4       0.129000
     35 H1           6.5500    -1.6270     0.7180 ho         1 KY4       0.474000
     36 OXT         -4.7750     3.1120     0.5920 o          1 KY4      -0.713500
@<TRIPOS>BOND
     1     1     4 1   
     2     1    24 1   
     3     1    25 1   
     4     2     3 1   
     5     2    26 1   
     6     3     4 1   
     7     3    27 1   
     8     3    28 1   
     9     4     5 1   
    10     4    29 1   
    11     5     6 2   
    12     5     7 1   
    13     6    10 1   
    14     7     8 1   
    15     7    11 1   
    16     8     9 2   
    17     8    10 1   
    18    10    12 2   
    19    11    20 1   
    20    11    30 1   
    21    11    31 1   
    22    12    13 1   
    23    12    32 1   
    24    13    14 ar  
    25    13    15 ar  
    26    14    16 ar  
    27    14    23 1   
    28    15    17 ar  
    29    15    33 1   
    30    16    18 ar  
    31    16    22 1   
    32    17    18 ar  
    33    17    34 1   
    34    18    19 1   
    35    19    35 1   
    36    20    21 1   
    37    20    36 1   
@<TRIPOS>SUBSTRUCTURE
     1 KY4         1 TEMP              0 ****  ****    0 ROOT
