@<TRIPOS>MOLECULE
KY4
   36    37     1     0     0
SMALL
abcg2


@<TRIPOS>ATOM
      1 N           -2.1430    -2.4970    -1.4880 n8         1 KY4      -0.997200
      2 SG1         -4.4520    -3.0310     0.7900 sh         1 KY4      -0.445800
      3 CB1         -3.1570    -1.7610     0.7030 c3         1 KY4       0.031600
      4 CA1         -2.7470    -1.4180    -0.7410 c3         1 KY4       0.142200
      5 C1          -1.7820    -0.2730    -0.6650 cc         1 KY4       0.510900
      6 N2          -0.5120    -0.4480    -0.5120 nd         1 KY4      -0.679300
      7 N3          -2.1730     1.0430    -0.6950 n          1 KY4      -0.298300
      8 C2          -1.0520     1.8180    -0.4960 c          1 KY4       0.539200
      9 O2          -1.0210     3.0300    -0.4400 o          1 KY4      -0.491000
     10 CA2          0.0400     0.8180    -0.4070 cd         1 KY4       0.047400
     11 CA3         -3.5040     1.5920    -0.7210 c3         1 KY4      -0.058000
     12 CB2          1.3330     1.1660    -0.2590 ce         1 KY4      -0.118200
     13 CG2          2.4920     0.3030    -0.1920 ca         1 KY4      -0.076800
     14 CD1          3.7540     0.8680    -0.0060 ca         1 KY4       0.178000
     15 CD2          2.4520    -1.0950    -0.3150 ca         1 KY4      -0.037000
     16 CE1          4.8990     0.1040     0.0540 ca         1 KY4       0.008000
     17 CE2          3.5930    -1.8670    -0.2560 ca         1 KY4      -0.156000
     18 CZ           4.8440    -1.2790    -0.0700 ca         1 KY4       0.128100
     19 OH           5.9300    -2.0560    -0.0180 oh         1 KY4      -0.529100
     20 C           -4.0700     1.9170     0.6810 c          1 KY4       0.713000
     21 O           -3.3790     1.5950     1.6610 o          1 KY4      -0.713500
     22 F1           6.0860     0.7020     0.2360 f          1 KY4      -0.181000
     23 F2           3.8890     2.1900     0.1220 f          1 KY4      -0.161000
     24 HN1         -1.3270    -2.8430    -0.9980 hn         1 KY4       0.401500
     25 HN2         -2.7960    -3.2670    -1.5580 hn         1 KY4       0.401500
     26 HG1         -3.6810    -4.0980     0.5580 hs         1 KY4       0.178800
     27 HB11        -3.5590    -0.8840     1.2110 h1         1 KY4       0.109200
     28 HB12        -2.2860    -2.0920     1.2710 h1         1 KY4       0.109200
     29 HA1         -3.6430    -1.1010    -1.2790 h1         1 KY4       0.094700
     30 HA31        -3.4870     2.4990    -1.3270 h1         1 KY4       0.047200
     31 HA32        -4.1700     0.8990    -1.2370 h1         1 KY4       0.047200
     32 HB2          1.5100     2.2330    -0.1880 ha         1 KY4       0.202000
     33 HD2          1.4980    -1.5780    -0.4650 ha         1 KY4       0.163000
     34 HE2          3.5290    -2.9420    -0.3550 ha         1 KY4       0.129000
     35 H1           6.7370    -1.5380     0.0900 ho         1 KY4       0.474000
     36 OXT         -5.1830     2.4710     0.6680 o          1 KY4      -0.713500
@<TRIPOS>BOND
     1     1     4 1   
     2     1    24 1   
     3     1    25 1   
     4     2     3 1   
     5     2    26 1   
     6     3     4 1   
     7     3    27 1   
     8     3    28 1   
     9     4     5 1   
    10     4    29 1   
    11     5     6 2   
    12     5     7 1   
    13     6    10 1   
    14     7     8 1   
    15     7    11 1   
    16     8     9 2   
    17     8    10 1   
    18    10    12 2   
    19    11    20 1   
    20    11    30 1   
    21    11    31 1   
    22    12    13 1   
    23    12    32 1   
    24    13    14 ar  
    25    13    15 ar  
    26    14    16 ar  
    27    14    23 1   
    28    15    17 ar  
    29    15    33 1   
    30    16    18 ar  
    31    16    22 1   
    32    17    18 ar  
    33    17    34 1   
    34    18    19 1   
    35    19    35 1   
    36    20    21 1   
    37    20    36 1   
@<TRIPOS>SUBSTRUCTURE
     1 KY4         1 TEMP              0 ****  ****    0 ROOT
