@<TRIPOS>MOLECULE
KY5
   64    67     1     0     0
SMALL
No Charge or Current Charge


@<TRIPOS>ATOM
      1 C02          2.1610     3.2110     0.4550 c5         1 KY5       0.088300
      2 C03          3.1460     2.2390     1.1650 c5         1 KY5       0.100300
      3 C05          2.6550     0.8460     0.6150 c5         1 KY5       0.312300
      4 C07          3.5720    -1.1150    -0.6840 ca         1 KY5       0.130500
      5 C09          3.3890    -3.3930    -0.6030 ca         1 KY5       0.185900
      6 C11          4.7400    -2.5120    -2.2260 ca         1 KY5       0.452900
      7 C13          4.4250    -1.2210    -1.7530 ca         1 KY5      -0.102600
      8 C15          4.2330     0.8920    -1.3920 cc         1 KY5       0.403700
      9 C17          0.8560     2.3590     0.5260 c5         1 KY5       0.161300
     10 C18         -0.3100     2.8630    -0.3780 c3         1 KY5       0.189800
     11 C20         -2.7370     2.9770    -0.9320 c3         1 KY5       0.184800
     12 C21         -2.8470     4.5160    -0.8220 c3         1 KY5      -0.086400
     13 C22         -4.0930     5.0650    -1.5440 c3         1 KY5       0.150800
     14 C24         -1.7530     0.8510    -0.0930 c3         1 KY5       0.195800
     15 C25         -3.0960     0.2330     0.3570 c3         1 KY5      -0.096400
     16 C26         -2.9940    -1.2890     0.5520 c3         1 KY5       0.228800
     17 C28         -4.5730    -3.1480     1.2550 ca         1 KY5       0.616900
     18 C29         -3.7110    -4.2220     0.9950 ca         1 KY5      -0.237000
     19 C30         -4.1310    -5.5160     1.3370 ca         1 KY5      -0.033000
     20 C31         -5.3990    -5.6540     1.9220 ca         1 KY5      -0.231000
     21 C32         -6.1860    -4.5090     2.1380 ca         1 KY5       0.387900
     22 N06          3.4470     0.2240    -0.4460 na         1 KY5      -0.303300
     23 N08          3.0340    -2.1940    -0.0820 nb         1 KY5      -0.219000
     24 N10          4.2190    -3.6080    -1.6530 nb         1 KY5      -0.304000
     25 N12          5.5710    -2.7230    -3.2810 nv         1 KY5      -1.065900
     26 N14          4.8530     0.0270    -2.2170 nd         1 KY5      -0.555100
     27 N19         -1.6880     2.3430    -0.0790 n3         1 KY5      -0.750600
     28 N23         -4.1780     6.5340    -1.4430 n8         1 KY5      -0.995200
     29 N27         -4.2850    -1.8470     0.9660 nu         1 KY5      -0.933100
     30 N33         -5.7790    -3.2630     1.8070 nb         1 KY5      -0.755000
     31 O01          2.0870     4.4630     1.1640 oh         1 KY5      -0.704000
     32 O04          2.9840     2.3860     2.5830 oh         1 KY5      -0.700000
     33 O16          1.3180     1.0560     0.1000 os         1 KY5      -0.436000
     34 H1           2.4610     3.3710    -0.5910 h1         1 KY5       0.049700
     35 H2           4.1880     2.4460     0.8810 h1         1 KY5       0.072700
     36 H3           2.6300     0.1210     1.4400 h2         1 KY5       0.131700
     37 H4           2.9620    -4.2760    -0.1300 h5         1 KY5       0.048100
     38 H5           4.3080     1.9720    -1.4320 h5         1 KY5       0.063800
     39 H6           0.4910     2.2920     1.5610 h1         1 KY5       0.091700
     40 H7          -0.3110     3.9550    -0.2730 h1         1 KY5       0.040200
     41 H8          -0.0470     2.6500    -1.4230 h1         1 KY5       0.040200
     42 H9          -3.7230     2.5850    -0.6530 h1         1 KY5       0.029200
     43 H10         -2.5740     2.7120    -1.9860 h1         1 KY5       0.029200
     44 H11         -2.8870     4.7970     0.2370 hc         1 KY5       0.056200
     45 H12         -1.9580     4.9860    -1.2580 hc         1 KY5       0.056200
     46 H13         -4.0550     4.7890    -2.6070 h1         1 KY5       0.024200
     47 H14         -5.0000     4.6290    -1.1040 h1         1 KY5       0.024200
     48 H15         -0.9990     0.4510     0.5950 h1         1 KY5       0.033200
     49 H16         -1.5080     0.4730    -1.0950 h1         1 KY5       0.033200
     50 H17         -3.4090     0.7010     1.2980 hc         1 KY5       0.059700
     51 H18         -3.8700     0.4370    -0.3920 hc         1 KY5       0.059700
     52 H19         -2.6730    -1.7540    -0.3910 h1         1 KY5       0.036200
     53 H20         -2.2330    -1.5080     1.3140 h1         1 KY5       0.036200
     54 H21         -2.7410    -4.0610     0.5380 ha         1 KY5       0.120000
     55 H22         -3.4960    -6.3810     1.1550 ha         1 KY5       0.111000
     56 H23         -5.7750    -6.6320     2.2070 ha         1 KY5       0.122000
     57 H24         -7.1740    -4.5920     2.5900 h4         1 KY5       0.012100
     58 H25          5.7900    -1.9130    -3.8550 hn         1 KY5       0.507500
     59 H26          5.5230    -3.6190    -3.7580 hn         1 KY5       0.507500
     60 H28         -5.0490     6.8500    -1.8870 hn         1 KY5       0.393000
     61 H29         -4.3040     6.7940    -0.4570 hn         1 KY5       0.393000
     62 H31         -5.0130    -1.2110     1.2760 hn         1 KY5       0.495000
     63 H32          1.8400     5.1650     0.5140 ho         1 KY5       0.517000
     64 H33          2.6560     3.3190     2.6660 ho         1 KY5       0.525000
@<TRIPOS>BOND
     1     1     2 1   
     2     1     9 1   
     3     1    31 1   
     4     1    34 1   
     5     2     3 1   
     6     2    32 1   
     7     2    35 1   
     8     3    22 1   
     9     3    33 1   
    10     3    36 1   
    11     4     7 ar  
    12     4    22 1   
    13     4    23 ar  
    14     5    23 ar  
    15     5    24 ar  
    16     5    37 1   
    17     6     7 ar  
    18     6    24 ar  
    19     6    25 1   
    20     7    26 1   
    21     8    22 1   
    22     8    26 2   
    23     8    38 1   
    24     9    10 1   
    25     9    33 1   
    26     9    39 1   
    27    10    27 1   
    28    10    40 1   
    29    10    41 1   
    30    11    12 1   
    31    11    27 1   
    32    11    42 1   
    33    11    43 1   
    34    12    13 1   
    35    12    44 1   
    36    12    45 1   
    37    13    28 1   
    38    13    46 1   
    39    13    47 1   
    40    14    15 1   
    41    14    27 1   
    42    14    48 1   
    43    14    49 1   
    44    15    16 1   
    45    15    50 1   
    46    15    51 1   
    47    16    29 1   
    48    16    52 1   
    49    16    53 1   
    50    17    18 ar  
    51    17    29 1   
    52    17    30 ar  
    53    18    19 ar  
    54    18    54 1   
    55    19    20 ar  
    56    19    55 1   
    57    20    21 ar  
    58    20    56 1   
    59    21    30 ar  
    60    21    57 1   
    61    25    58 1   
    62    25    59 1   
    63    28    60 1   
    64    28    61 1   
    65    29    62 1   
    66    31    63 1   
    67    32    64 1   
@<TRIPOS>SUBSTRUCTURE
     1 KY5         1 TEMP              0 ****  ****    0 ROOT
