@<TRIPOS>MOLECULE
KY5
   64    67     1     0     0
SMALL
bcc


@<TRIPOS>ATOM
      1 C02          2.1010     3.1500    -0.3490 c5         1 KY5       0.065100
      2 C03          2.9840     2.4150     0.6650 c5         1 KY5       0.077100
      3 C05          2.2090     1.1090     0.8480 c5         1 KY5       0.259800
      4 C07          3.5910    -0.9080     0.3060 ca         1 KY5       0.458800
      5 C09          5.0160    -2.1270     1.4480 ca         1 KY5       0.711900
      6 C11          4.6430    -2.7630    -0.7330 ca         1 KY5       0.781200
      7 C13          3.7480    -1.6810    -0.8330 ca         1 KY5      -0.233200
      8 C15          2.3460    -0.1860    -1.3360 cc         1 KY5       0.403700
      9 C17          0.7020     2.7150     0.0780 c5         1 KY5       0.138100
     10 C18         -0.3240     2.7580    -1.0370 c3         1 KY5       0.189800
     11 C20         -2.7250     3.1480    -0.9920 c3         1 KY5       0.184800
     12 C21         -2.8410     4.3690    -0.0910 c3         1 KY5      -0.086400
     13 C22         -3.9640     5.2960    -0.5290 c3         1 KY5       0.150800
     14 C24         -1.8740     0.8820    -0.9460 c3         1 KY5       0.195800
     15 C25         -2.6730     0.1760     0.1390 c3         1 KY5      -0.096400
     16 C26         -3.0290    -1.2460    -0.2610 c3         1 KY5       0.228800
     17 C28         -4.2120    -3.1780     0.7200 ca         1 KY5       0.682200
     18 C29         -3.8760    -4.0330    -0.3480 ca         1 KY5      -0.320300
     19 C30         -4.3900    -5.3130    -0.3490 ca         1 KY5      -0.051000
     20 C31         -5.2220    -5.7300     0.6860 ca         1 KY5      -0.314300
     21 C32         -5.4950    -4.8110     1.6850 ca         1 KY5       0.453200
     22 N06          2.6830     0.0520    -0.0320 na         1 KY5      -0.274000
     23 N08          4.2040    -1.0840     1.4750 nb         1 KY5      -0.745000
     24 N10          5.2640    -2.9540     0.4360 nb         1 KY5      -0.830000
     25 N12          4.8920    -3.5900    -1.7480 nv         1 KY5      -0.955500
     26 N14          2.9580    -1.2120    -1.8500 nd         1 KY5      -0.555100
     27 N19         -1.6250     2.2760    -0.6180 n3         1 KY5      -0.750600
     28 N23         -4.0750     6.4380     0.3670 n8         1 KY5      -0.884800
     29 N27         -3.7280    -1.9140     0.8110 nu         1 KY5      -0.877900
     30 N33         -5.0140    -3.5750     1.7130 nb         1 KY5      -0.755000
     31 O01          2.2150     4.5440    -0.2940 oh         1 KY5      -0.581800
     32 O04          2.9900     3.0820     1.8980 oh         1 KY5      -0.577800
     33 O16          0.8710     1.3820     0.5570 os         1 KY5      -0.389600
     34 H1           2.3140     2.7720    -1.3590 h1         1 KY5       0.049700
     35 H2           4.0010     2.2340     0.2950 h1         1 KY5       0.072700
     36 H3           2.3220     0.7290     1.8670 h2         1 KY5       0.131700
     37 H4           5.5530    -2.3390     2.3660 h5         1 KY5       0.048100
     38 H5           1.6320     0.4270    -1.8650 h5         1 KY5       0.063800
     39 H6           0.3500     3.3510     0.9010 h1         1 KY5       0.091700
     40 H7          -0.3960     3.8030    -1.3510 h1         1 KY5       0.040200
     41 H8           0.0490     2.2110    -1.9160 h1         1 KY5       0.040200
     42 H9          -3.6530     2.5750    -0.9170 h1         1 KY5       0.029200
     43 H10         -2.6500     3.4650    -2.0450 h1         1 KY5       0.029200
     44 H11         -3.0150     4.0290     0.9350 hc         1 KY5       0.056200
     45 H12         -1.9030     4.9320    -0.0810 hc         1 KY5       0.056200
     46 H13         -3.7470     5.6710    -1.5330 h1         1 KY5       0.024200
     47 H14         -4.8940     4.7140    -0.6150 h1         1 KY5       0.024200
     48 H15         -0.9200     0.3660    -1.0570 h1         1 KY5       0.033200
     49 H16         -2.3850     0.7830    -1.9170 h1         1 KY5       0.033200
     50 H17         -2.0820     0.1650     1.0580 hc         1 KY5       0.059700
     51 H18         -3.5910     0.7310     0.3550 hc         1 KY5       0.059700
     52 H19         -3.6330    -1.2300    -1.1780 h1         1 KY5       0.036200
     53 H20         -2.1120    -1.7930    -0.5020 h1         1 KY5       0.036200
     54 H21         -3.2320    -3.7010    -1.1510 ha         1 KY5       0.138000
     55 H22         -4.1430    -5.9870    -1.1590 ha         1 KY5       0.129000
     56 H23         -5.6440    -6.7240     0.7150 ha         1 KY5       0.140000
     57 H24         -6.1410    -5.0850     2.5130 h4         1 KY5       0.012100
     58 H25          4.4260    -3.4850    -2.6320 hn         1 KY5       0.452300
     59 H26          5.5160    -4.3690    -1.6260 hn         1 KY5       0.452300
     60 H28         -4.8010     7.0580     0.0340 hn         1 KY5       0.337800
     61 H29         -4.3870     6.1190     1.2760 hn         1 KY5       0.337800
     62 H31         -4.1680    -1.3370     1.5100 hn         1 KY5       0.439800
     63 H32          2.9630     4.8170    -0.8340 ho         1 KY5       0.418000
     64 H33          3.0050     4.0300     1.7190 ho         1 KY5       0.426000
@<TRIPOS>BOND
     1     1     2 1   
     2     1     9 1   
     3     1    31 1   
     4     1    34 1   
     5     2     3 1   
     6     2    32 1   
     7     2    35 1   
     8     3    22 1   
     9     3    33 1   
    10     3    36 1   
    11     4     7 ar  
    12     4    22 1   
    13     4    23 ar  
    14     5    23 ar  
    15     5    24 ar  
    16     5    37 1   
    17     6     7 ar  
    18     6    24 ar  
    19     6    25 1   
    20     7    26 1   
    21     8    22 1   
    22     8    26 2   
    23     8    38 1   
    24     9    10 1   
    25     9    33 1   
    26     9    39 1   
    27    10    27 1   
    28    10    40 1   
    29    10    41 1   
    30    11    12 1   
    31    11    27 1   
    32    11    42 1   
    33    11    43 1   
    34    12    13 1   
    35    12    44 1   
    36    12    45 1   
    37    13    28 1   
    38    13    46 1   
    39    13    47 1   
    40    14    15 1   
    41    14    27 1   
    42    14    48 1   
    43    14    49 1   
    44    15    16 1   
    45    15    50 1   
    46    15    51 1   
    47    16    29 1   
    48    16    52 1   
    49    16    53 1   
    50    17    18 ar  
    51    17    29 1   
    52    17    30 ar  
    53    18    19 ar  
    54    18    54 1   
    55    19    20 ar  
    56    19    55 1   
    57    20    21 ar  
    58    20    56 1   
    59    21    30 ar  
    60    21    57 1   
    61    25    58 1   
    62    25    59 1   
    63    28    60 1   
    64    28    61 1   
    65    29    62 1   
    66    31    63 1   
    67    32    64 1   
@<TRIPOS>SUBSTRUCTURE
     1 KY5         1 TEMP              0 ****  ****    0 ROOT
