@<TRIPOS>MOLECULE
KY6
   43    45     1     0     0
SMALL
No Charge or Current Charge


@<TRIPOS>ATOM
      1 C10         -8.5450    21.6280   -49.3340 cc         1 KY6      -0.109200
      2 C11         -9.6950    22.3320   -49.0070 cd         1 KY6      -0.075400
      3 C12        -11.0400    21.7270   -48.9990 cf         1 KY6      -0.052000
      4 C13        -12.2810    22.2460   -48.7360 ce         1 KY6       0.011100
      5 C14        -12.5030    23.6190   -48.3820 cg         1 KY6       0.283700
      6 C16        -13.5350    21.4320   -48.7770 ca         1 KY6      -0.011800
      7 C17        -13.5720    20.1690   -48.1510 ca         1 KY6      -0.106000
      8 C18        -14.7400    19.3870   -48.1830 ca         1 KY6      -0.069500
      9 C19        -15.8890    19.8570   -48.8460 ca         1 KY6      -0.016000
     10 C20        -17.0830    19.0580   -48.8790 cg         1 KY6       0.323000
     11 C01         -4.3000    26.4050   -47.9970 c3         1 KY6       0.210100
     12 C03         -2.9970    25.1790   -49.7890 c3         1 KY6       0.221800
     13 C04         -1.7340    24.5840   -49.1080 c3         1 KY6       0.132600
     14 C06         -5.2590    24.3050   -49.0320 ca         1 KY6       0.366000
     15 C07         -5.0010    22.9680   -49.4180 ca         1 KY6      -0.190000
     16 C08         -6.0470    22.0320   -49.5370 ca         1 KY6      -0.017000
     17 C09         -7.3580    22.4470   -49.2640 ca         1 KY6      -0.147800
     18 C22        -15.8590    21.1150   -49.4770 ca         1 KY6      -0.069500
     19 C23        -14.6910    21.8970   -49.4430 ca         1 KY6      -0.106000
     20 C25         -7.6220    23.7430   -48.8860 ca         1 KY6      -0.096000
     21 C26         -6.5930    24.6880   -48.7630 ca         1 KY6      -0.193000
     22 N02         -4.2000    25.2430   -48.9120 nh         1 KY6      -0.823400
     23 N15        -12.7340    24.7270   -48.0930 n1         1 KY6      -0.451000
     24 N21        -18.0480    18.4020   -48.9110 n1         1 KY6      -0.449000
     25 O05         -0.6280    24.5380   -50.0270 oh         1 KY6      -0.661000
     26 S24         -9.3450    24.0470   -48.5950 ss         1 KY6       0.091400
     27 H101        -8.5490    20.5760   -49.6120 ha         1 KY6       0.199000
     28 H121       -11.0270    20.6690   -49.2620 ha         1 KY6       0.183000
     29 H171       -12.6950    19.7940   -47.6270 ha         1 KY6       0.124500
     30 H181       -14.7490    18.4160   -47.6900 ha         1 KY6       0.128000
     31 H013        -3.3040    26.7920   -47.7440 h1         1 KY6       0.041033
     32 H012        -4.8760    27.2160   -48.4640 h1         1 KY6       0.041033
     33 H011        -4.7920    26.1160   -47.0590 h1         1 KY6       0.041033
     34 H032        -3.2200    24.5890   -50.6880 h1         1 KY6       0.065700
     35 H031        -2.7520    26.1890   -50.1450 h1         1 KY6       0.065700
     36 H041        -1.4750    25.1990   -48.2360 h1         1 KY6       0.026700
     37 H042        -1.9640    23.5740   -48.7450 h1         1 KY6       0.026700
     38 H071        -3.9860    22.6420   -49.6180 ha         1 KY6       0.119000
     39 H081        -5.8390    21.0060   -49.8320 ha         1 KY6       0.115000
     40 H221       -16.7400    21.4890   -49.9960 ha         1 KY6       0.128000
     41 H231       -14.6860    22.8610   -49.9470 ha         1 KY6       0.124500
     42 H261        -6.8330    25.7060   -48.4740 ha         1 KY6       0.125000
     43 H051         0.1370    24.1570   -49.5380 ho         1 KY6       0.450000
@<TRIPOS>BOND
     1     1     2 2   
     2     1    17 1   
     3     1    27 1   
     4     2     3 1   
     5     2    26 1   
     6     3     4 2   
     7     3    28 1   
     8     4     5 1   
     9     4     6 1   
    10     5    23 3   
    11     6     7 ar  
    12     6    19 ar  
    13     7     8 ar  
    14     7    29 1   
    15     8     9 ar  
    16     8    30 1   
    17     9    10 1   
    18     9    18 ar  
    19    10    24 3   
    20    11    22 1   
    21    11    31 1   
    22    11    32 1   
    23    11    33 1   
    24    12    13 1   
    25    12    22 1   
    26    12    34 1   
    27    12    35 1   
    28    13    25 1   
    29    13    36 1   
    30    13    37 1   
    31    14    15 ar  
    32    14    21 ar  
    33    14    22 1   
    34    15    16 ar  
    35    15    38 1   
    36    16    17 ar  
    37    16    39 1   
    38    17    20 ar  
    39    18    19 ar  
    40    18    40 1   
    41    19    41 1   
    42    20    21 ar  
    43    20    26 1   
    44    21    42 1   
    45    25    43 1   
@<TRIPOS>SUBSTRUCTURE
     1 KY6         1 TEMP              0 ****  ****    0 ROOT
