@<TRIPOS>MOLECULE
KY6
   43    45     1     0     0
SMALL
abcg2


@<TRIPOS>ATOM
      1 C10         -8.5260    21.6870   -49.5900 cc         1 KY6      -0.109200
      2 C11         -9.6430    22.3450   -49.1380 cd         1 KY6      -0.075400
      3 C12        -10.9250    21.7330   -49.0770 cf         1 KY6      -0.052000
      4 C13        -12.1280    22.2280   -48.6810 ce         1 KY6       0.011100
      5 C14        -12.2550    23.5840   -48.2670 cg         1 KY6       0.283700
      6 C16        -13.3620    21.4250   -48.6740 ca         1 KY6      -0.011800
      7 C17        -13.3170    20.0340   -48.5390 ca         1 KY6      -0.106000
      8 C18        -14.4740    19.2810   -48.5610 ca         1 KY6      -0.069500
      9 C19        -15.7100    19.9100   -48.7040 ca         1 KY6      -0.016000
     10 C20        -16.9070    19.1350   -48.7230 cg         1 KY6       0.323000
     11 C01         -4.5510    26.6050   -48.6640 c3         1 KY6       0.210100
     12 C03         -2.9160    25.0010   -49.6010 c3         1 KY6       0.221800
     13 C04         -2.1790    24.3520   -48.4370 c3         1 KY6       0.132600
     14 C06         -5.2860    24.3960   -49.3500 ca         1 KY6       0.366000
     15 C07         -5.0390    23.0770   -49.8350 ca         1 KY6      -0.190000
     16 C08         -6.0400    22.1500   -49.9430 ca         1 KY6      -0.017000
     17 C09         -7.3530    22.4730   -49.5660 ca         1 KY6      -0.147800
     18 C22        -15.7740    21.2980   -48.8190 ca         1 KY6      -0.069500
     19 C23        -14.6100    22.0420   -48.8000 ca         1 KY6      -0.106000
     20 C25         -7.5920    23.7700   -49.0760 ca         1 KY6      -0.096000
     21 C26         -6.5950    24.7230   -48.9590 ca         1 KY6      -0.193000
     22 N02         -4.2900    25.3200   -49.2740 nh         1 KY6      -0.823400
     23 N15        -12.3920    24.6770   -47.9240 n1         1 KY6      -0.451000
     24 N21        -17.8740    18.5070   -48.7380 n1         1 KY6      -0.449000
     25 O05         -0.8600    24.0980   -48.8560 oh         1 KY6      -0.661000
     26 S24         -9.2600    23.9900   -48.6590 ss         1 KY6       0.091400
     27 H101        -8.5560    20.6590   -49.9300 ha         1 KY6       0.199000
     28 H121       -10.9180    20.7060   -49.4260 ha         1 KY6       0.183000
     29 H171       -12.3740    19.5240   -48.3920 ha         1 KY6       0.124500
     30 H181       -14.4180    18.2060   -48.4530 ha         1 KY6       0.128000
     31 H013        -3.6370    27.1920   -48.6670 h1         1 KY6       0.041033
     32 H012        -5.3080    27.1680   -49.2150 h1         1 KY6       0.041033
     33 H011        -4.8860    26.5110   -47.6270 h1         1 KY6       0.041033
     34 H032        -2.8720    24.3580   -50.4810 h1         1 KY6       0.065700
     35 H031        -2.4120    25.9270   -49.8810 h1         1 KY6       0.065700
     36 H041        -2.2120    25.0270   -47.5710 h1         1 KY6       0.026700
     37 H042        -2.7000    23.4320   -48.1420 h1         1 KY6       0.026700
     38 H071        -4.0430    22.7800   -50.1260 ha         1 KY6       0.119000
     39 H081        -5.8120    21.1590   -50.3150 ha         1 KY6       0.115000
     40 H221       -16.7300    21.7930   -48.9260 ha         1 KY6       0.128000
     41 H231       -14.6840    23.1170   -48.9010 ha         1 KY6       0.124500
     42 H261        -6.8390    25.7040   -48.5770 ha         1 KY6       0.125000
     43 H051        -0.3900    23.6650   -48.1380 ho         1 KY6       0.450000
@<TRIPOS>BOND
     1     1     2 2   
     2     1    17 1   
     3     1    27 1   
     4     2     3 1   
     5     2    26 1   
     6     3     4 2   
     7     3    28 1   
     8     4     5 1   
     9     4     6 1   
    10     5    23 3   
    11     6     7 ar  
    12     6    19 ar  
    13     7     8 ar  
    14     7    29 1   
    15     8     9 ar  
    16     8    30 1   
    17     9    10 1   
    18     9    18 ar  
    19    10    24 3   
    20    11    22 1   
    21    11    31 1   
    22    11    32 1   
    23    11    33 1   
    24    12    13 1   
    25    12    22 1   
    26    12    34 1   
    27    12    35 1   
    28    13    25 1   
    29    13    36 1   
    30    13    37 1   
    31    14    15 ar  
    32    14    21 ar  
    33    14    22 1   
    34    15    16 ar  
    35    15    38 1   
    36    16    17 ar  
    37    16    39 1   
    38    17    20 ar  
    39    18    19 ar  
    40    18    40 1   
    41    19    41 1   
    42    20    21 ar  
    43    20    26 1   
    44    21    42 1   
    45    25    43 1   
@<TRIPOS>SUBSTRUCTURE
     1 KY6         1 TEMP              0 ****  ****    0 ROOT
