@<TRIPOS>MOLECULE
KY7
   38    39     1     0     0
SMALL
abcg2


@<TRIPOS>ATOM
      1 N            2.5750    -2.2130    -1.2220 n8         1 KY7      -0.970200
      2 CB1          3.4080    -1.9930     1.1520 c3         1 KY7       0.030600
      3 CA1          3.0980    -1.3320    -0.2070 c3         1 KY7       0.144200
      4 C1           2.1190    -0.2300     0.0550 cc         1 KY7       0.531900
      5 N2           0.8470    -0.3660    -0.1030 nd         1 KY7      -0.677300
      6 N3           2.4980     0.9700     0.6110 n          1 KY7      -0.302300
      7 C2           1.3640     1.7360     0.7620 c          1 KY7       0.537200
      8 O2           1.3160     2.8820     1.1580 o          1 KY7      -0.503000
      9 CA2          0.2780     0.8220     0.3280 cd         1 KY7       0.051400
     10 CA3          3.8360     1.5040     0.6600 c3         1 KY7      -0.066000
     11 CB2         -1.0250     1.1520     0.3860 ce         1 KY7      -0.126200
     12 CG2         -2.1780     0.3530     0.0210 ca         1 KY7      -0.073800
     13 CD1         -3.4380     0.9050     0.1920 ca         1 KY7      -0.017000
     14 CD2         -2.1010    -0.9580    -0.4940 ca         1 KY7       0.009000
     15 CE1         -4.5880     0.1890    -0.1300 ca         1 KY7      -0.304200
     16 CE2         -3.2300    -1.6660    -0.8140 ca         1 KY7      -0.191000
     17 CZ          -4.5100    -1.1220    -0.6410 ca         1 KY7       0.229100
     18 OH          -5.5410    -1.8770    -0.9710 oh         1 KY7      -0.528100
     19 C            4.3660     1.9300    -0.7290 c          1 KY7       0.707000
     20 O            3.6340     1.7000    -1.7050 o          1 KY7      -0.707500
     21 NA          -5.8610     0.8230     0.0760 no         1 KY7       0.708200
     22 OA          -6.8720     0.1880    -0.1960 o          1 KY7      -0.425500
     23 HN1          3.2390    -2.9590    -1.3870 hn         1 KY7       0.397000
     24 HN2          1.7150    -2.6450    -0.9060 hn         1 KY7       0.397000
     25 HG1          3.7650    -4.3060     0.6310 hs         1 KY7       0.192800
     26 HB11         2.4950    -2.3670     1.6160 h1         1 KY7       0.079200
     27 HB12         3.8550    -1.2760     1.8420 h1         1 KY7       0.079200
     28 HA1          4.0270    -0.9000    -0.5860 h1         1 KY7       0.128700
     29 HA31         3.8300     2.3590     1.3360 h1         1 KY7       0.048200
     30 HA32         4.5120     0.7720     1.1080 h1         1 KY7       0.048200
     31 HB2         -1.2440     2.1450     0.7650 ha         1 KY7       0.191000
     32 HD1         -3.5310     1.9090     0.5830 ha         1 KY7       0.147000
     33 HD2         -1.1330    -1.4150    -0.6420 ha         1 KY7       0.167000
     34 HE1         -3.1500    -2.6710    -1.2090 ha         1 KY7       0.135000
     35 H1          -6.3650    -1.3810    -0.8050 ho         1 KY7       0.514000
     36 OXT          5.4930     2.4560    -0.7130 o          1 KY7      -0.707500
     37 OB          -5.8980     1.9460     0.5060 o          1 KY7      -0.425500
     38 SG1          4.6120    -3.3480     1.0220 sh         1 KY7      -0.446800
@<TRIPOS>BOND
     1     1     3 1   
     2     1    23 1   
     3     1    24 1   
     4     2     3 1   
     5     2    26 1   
     6     2    27 1   
     7     2    38 1   
     8     3     4 1   
     9     3    28 1   
    10     4     5 2   
    11     4     6 1   
    12     5     9 1   
    13     6     7 1   
    14     6    10 1   
    15     7     8 2   
    16     7     9 1   
    17     9    11 2   
    18    10    19 1   
    19    10    29 1   
    20    10    30 1   
    21    11    12 1   
    22    11    31 1   
    23    12    13 ar  
    24    12    14 ar  
    25    13    15 ar  
    26    13    32 1   
    27    14    16 ar  
    28    14    33 1   
    29    15    17 ar  
    30    15    21 1   
    31    16    17 ar  
    32    16    34 1   
    33    17    18 1   
    34    18    35 1   
    35    19    20 1   
    36    19    36 1   
    37    21    22 1   
    38    21    37 1   
    39    25    38 1   
@<TRIPOS>SUBSTRUCTURE
     1 KY7         1 TEMP              0 ****  ****    0 ROOT
