@<TRIPOS>MOLECULE
KY7
   38    39     1     0     0
SMALL
No Charge or Current Charge


@<TRIPOS>ATOM
      1 N            2.6900    -2.4680    -1.0760 n8         1 KY7      -0.970200
      2 CB1          3.2590    -2.0830     1.3410 c3         1 KY7       0.030600
      3 CA1          3.0680    -1.4270    -0.0520 c3         1 KY7       0.144200
      4 C1           2.1070    -0.2280     0.0430 cc         1 KY7       0.531900
      5 N2           0.7780    -0.3510    -0.1160 nd         1 KY7      -0.677300
      6 N3           2.5170     1.0600     0.3640 n          1 KY7      -0.302300
      7 C2           1.4290     1.8960     0.4090 c          1 KY7       0.537200
      8 O2           1.4000     3.0960     0.6530 o          1 KY7      -0.503000
      9 CA2          0.3360     0.9530     0.0940 cd         1 KY7       0.051400
     10 CA3          3.9090     1.5290     0.6160 c3         1 KY7      -0.066000
     11 CB2         -1.0000     1.2960     0.0340 ce         1 KY7      -0.126200
     12 CG2         -2.2130     0.4690    -0.2530 ca         1 KY7      -0.073800
     13 CD1         -3.4390     0.8220     0.3430 ca         1 KY7      -0.017000
     14 CD2         -2.1670    -0.6340    -1.1250 ca         1 KY7       0.009000
     15 CE1         -4.6210     0.0770     0.0940 ca         1 KY7      -0.304200
     16 CE2         -3.3290    -1.3790    -1.3800 ca         1 KY7      -0.191000
     17 CZ          -4.5470    -1.0370    -0.7790 ca         1 KY7       0.229100
     18 OH          -5.6320    -1.8050    -1.0730 oh         1 KY7      -0.528100
     19 C            4.6490     2.0140    -0.6490 c          1 KY7       0.707000
     20 O            4.8700     1.1980    -1.5310 o          1 KY7      -0.707500
     21 NA          -5.8980     0.4950     0.7630 no         1 KY7       0.708200
     22 OA          -6.9220    -0.1660     0.5450 o          1 KY7      -0.425500
     23 HN1          3.2870    -3.2930    -0.9490 hn         1 KY7       0.397000
     24 HN2          1.7410    -2.8040    -0.8720 hn         1 KY7       0.397000
     25 HG1          3.6470    -4.4370     0.8890 hs         1 KY7       0.192800
     26 HB11         2.2910    -2.4510     1.7070 h1         1 KY7       0.079200
     27 HB12         3.6050    -1.3170     2.0480 h1         1 KY7       0.079200
     28 HA1          4.0480    -1.0260    -0.3490 h1         1 KY7       0.128700
     29 HA31         3.8830     2.3550     1.3390 h1         1 KY7       0.048200
     30 HA32         4.4980     0.7220     1.0660 h1         1 KY7       0.048200
     31 HB2         -1.2090     2.3400     0.2750 ha         1 KY7       0.191000
     32 HD1         -3.4600     1.6820     1.0100 ha         1 KY7       0.147000
     33 HD2         -1.2390    -0.9110    -1.6190 ha         1 KY7       0.167000
     34 HE1         -3.2830    -2.2290    -2.0550 ha         1 KY7       0.135000
     35 H1          -6.3940    -1.4290    -0.5730 ho         1 KY7       0.514000
     36 OXT          4.9530     3.1950    -0.7260 o          1 KY7      -0.707500
     37 OB          -5.8740     1.4840     1.5040 o          1 KY7      -0.425500
     38 SG1          4.4780    -3.4890     1.3880 sh         1 KY7      -0.446800
@<TRIPOS>BOND
     1     1     3 1   
     2     1    23 1   
     3     1    24 1   
     4     2     3 1   
     5     2    26 1   
     6     2    27 1   
     7     2    38 1   
     8     3     4 1   
     9     3    28 1   
    10     4     5 2   
    11     4     6 1   
    12     5     9 1   
    13     6     7 1   
    14     6    10 1   
    15     7     8 2   
    16     7     9 1   
    17     9    11 2   
    18    10    19 1   
    19    10    29 1   
    20    10    30 1   
    21    11    12 1   
    22    11    31 1   
    23    12    13 ar  
    24    12    14 ar  
    25    13    15 ar  
    26    13    32 1   
    27    14    16 ar  
    28    14    33 1   
    29    15    17 ar  
    30    15    21 1   
    31    16    17 ar  
    32    16    34 1   
    33    17    18 1   
    34    18    35 1   
    35    19    20 1   
    36    19    36 1   
    37    21    22 1   
    38    21    37 1   
    39    25    38 1   
@<TRIPOS>SUBSTRUCTURE
     1 KY7         1 TEMP              0 ****  ****    0 ROOT
