@<TRIPOS>MOLECULE
KY8
   63    66     1     0     0
SMALL
abcg2


@<TRIPOS>ATOM
      1 C02          1.3420     0.1140     3.3250 c5         1 KY8       0.106300
      2 C03          2.6570     0.3230     2.5700 c5         1 KY8       0.080300
      3 C05          2.3890    -0.4880     1.3070 c5         1 KY8       0.316300
      4 C07          4.0730    -0.9070    -0.4970 ca         1 KY8       0.142500
      5 C13          4.5910    -0.1090    -1.5050 ca         1 KY8      -0.101600
      6 C15          3.2240     1.1080    -0.4550 cc         1 KY8       0.411700
      7 C17          0.3300     0.1440     2.1820 c5         1 KY8       0.166300
      8 C18         -0.2680     1.5250     1.9620 c3         1 KY8       0.167800
      9 C20         -1.2960     2.8690     0.2380 c3         1 KY8       0.175800
     10 C09          5.2720    -2.6360    -1.1200 ca         1 KY8       0.182900
     11 C11          5.5370    -0.7130    -2.3540 ca         1 KY8       0.451900
     12 C21         -0.1090     3.2150    -0.6480 c3         1 KY8      -0.081400
     13 C22         -0.2750     4.5650    -1.3280 c3         1 KY8       0.148800
     14 C24         -2.4960     1.0080     1.1870 c3         1 KY8       0.180800
     15 C25         -3.1780     0.3720    -0.0160 c3         1 KY8      -0.101400
     16 C26         -4.5680    -0.1380     0.3320 c3         1 KY8       0.240800
     17 C28         -6.3710    -1.3600    -0.8200 ca         1 KY8       0.382900
     18 C30         -7.9850    -2.4360    -1.9870 ca         1 KY8       0.153900
     19 C31         -8.7110    -2.6590    -0.8240 ca         1 KY8      -0.294000
     20 C32         -8.1460    -2.1580     0.3350 ca         1 KY8       0.153900
     21 N06          3.1940    -0.1060     0.1770 na         1 KY8      -0.284300
     22 N08          4.3790    -2.1790    -0.2590 nb         1 KY8      -0.216000
     23 N10          5.8550    -1.9920    -2.1280 nb         1 KY8      -0.303000
     24 N14          4.0430     1.1480    -1.4620 nd         1 KY8      -0.551100
     25 N19         -1.1920     1.5530     0.8470 n3         1 KY8      -0.722600
     26 N23          0.8650     4.8560    -2.1850 n8         1 KY8      -0.989200
     27 N27         -5.1860    -0.7280    -0.8310 nu         1 KY8      -0.924100
     28 N29         -6.8310    -1.7980    -2.0040 nb         1 KY8      -0.249500
     29 N33         -6.9910    -1.5100     0.3560 nb         1 KY8      -0.249500
     30 O01          1.3100    -1.1550     3.9280 oh         1 KY8      -0.704000
     31 O04          3.7960    -0.1600     3.2160 oh         1 KY8      -0.691000
     32 O16          1.0390    -0.2790     1.0090 os         1 KY8      -0.431000
     33 H1           1.1570     0.9130     4.0540 h1         1 KY8       0.052700
     34 H2           2.7570     1.3870     2.3160 h1         1 KY8       0.049700
     35 H3           2.6120    -1.5460     1.4880 h2         1 KY8       0.120700
     36 H4           5.8800     0.8880    -3.5760 hn         1 KY8       0.506500
     37 H5           6.7620    -0.5410    -3.9700 hn         1 KY8       0.506500
     38 H6           2.6070     1.9330    -0.1300 h5         1 KY8       0.063800
     39 H7          -0.4650    -0.5820     2.3810 h1         1 KY8       0.092700
     40 H8          -0.7400     1.8520     2.9020 h1         1 KY8       0.034200
     41 H9           0.5420     2.2330     1.7700 h1         1 KY8       0.034200
     42 H10         -1.4400     3.6560     0.9980 h1         1 KY8       0.029700
     43 H11         -2.1960     2.8840    -0.3820 h1         1 KY8       0.029700
     44 H12          5.5720    -3.6710    -0.9920 h5         1 KY8       0.046100
     45 H13          0.8110     3.2390    -0.0540 hc         1 KY8       0.053700
     46 H14          0.0180     2.4330    -1.4010 hc         1 KY8       0.053700
     47 H15         -1.1740     4.5440    -1.9510 h1         1 KY8       0.025200
     48 H16         -0.4520     5.3320    -0.5600 h1         1 KY8       0.025200
     49 H17         -3.1500     1.7760     1.6320 h1         1 KY8       0.032700
     50 H18         -2.3760     0.2410     1.9560 h1         1 KY8       0.032700
     51 H19         -3.2560     1.0960    -0.8330 hc         1 KY8       0.058700
     52 H20         -2.5600    -0.4530    -0.3790 hc         1 KY8       0.058700
     53 H21         -4.5000    -0.8800     1.1310 h1         1 KY8       0.048700
     54 H22         -5.1780     0.6850     0.7210 h1         1 KY8       0.048700
     55 H23         -8.3540    -2.7880    -2.9440 h4         1 KY8       0.018100
     56 H24         -9.6530    -3.1860    -0.8260 ha         1 KY8       0.133000
     57 H25         -8.6450    -2.2800     1.2910 h4         1 KY8       0.018100
     58 H27          0.7390     5.7620    -2.6170 hn         1 KY8       0.392000
     59 H28          1.6970     4.9440    -1.6130 hn         1 KY8       0.392000
     60 H30         -4.7720    -0.5670    -1.7340 hn         1 KY8       0.508000
     61 H31          2.1360    -1.2750     4.4090 ho         1 KY8       0.523000
     62 H32          4.1100     0.5080     3.8330 ho         1 KY8       0.513000
     63 N12          6.1230    -0.0620    -3.3600 nv         1 KY8      -1.066900
@<TRIPOS>BOND
     1     1     2 1   
     2     1     7 1   
     3     1    30 1   
     4     1    33 1   
     5     2     3 1   
     6     2    31 1   
     7     2    34 1   
     8     3    21 1   
     9     3    32 1   
    10     3    35 1   
    11     4     5 ar  
    12     4    21 1   
    13     4    22 ar  
    14     5    11 ar  
    15     5    24 1   
    16     6    21 1   
    17     6    24 2   
    18     6    38 1   
    19     7     8 1   
    20     7    32 1   
    21     7    39 1   
    22     8    25 1   
    23     8    40 1   
    24     8    41 1   
    25     9    12 1   
    26     9    25 1   
    27     9    42 1   
    28     9    43 1   
    29    10    22 ar  
    30    10    23 ar  
    31    10    44 1   
    32    11    23 ar  
    33    11    63 1   
    34    12    13 1   
    35    12    45 1   
    36    12    46 1   
    37    13    26 1   
    38    13    47 1   
    39    13    48 1   
    40    14    15 1   
    41    14    25 1   
    42    14    49 1   
    43    14    50 1   
    44    15    16 1   
    45    15    51 1   
    46    15    52 1   
    47    16    27 1   
    48    16    53 1   
    49    16    54 1   
    50    17    27 1   
    51    17    28 ar  
    52    17    29 ar  
    53    18    19 ar  
    54    18    28 ar  
    55    18    55 1   
    56    19    20 ar  
    57    19    56 1   
    58    20    29 ar  
    59    20    57 1   
    60    26    58 1   
    61    26    59 1   
    62    27    60 1   
    63    30    61 1   
    64    31    62 1   
    65    36    63 1   
    66    37    63 1   
@<TRIPOS>SUBSTRUCTURE
     1 KY8         1 TEMP              0 ****  ****    0 ROOT
