@<TRIPOS>MOLECULE
KY8
   63    66     1     0     0
SMALL
No Charge or Current Charge


@<TRIPOS>ATOM
      1 C02          1.5700     0.7130     3.9210 c5         1 KY8       0.106300
      2 C03          2.8200     0.6350     2.9950 c5         1 KY8       0.080300
      3 C05          2.3600    -0.4240     1.9160 c5         1 KY8       0.316300
      4 C07          3.0130    -1.1830    -0.4000 ca         1 KY8       0.142500
      5 C13          3.3740    -0.5210    -1.5450 ca         1 KY8      -0.101600
      6 C15          2.9470     1.0240    -0.1100 cc         1 KY8       0.411700
      7 C17          0.4250     0.5340     2.8750 c5         1 KY8       0.166300
      8 C18          0.0790     1.8380     2.0730 c3         1 KY8       0.167800
      9 C20         -0.9750     2.9830     0.1260 c3         1 KY8       0.175800
     10 C09          3.3060    -3.1860    -1.4660 ca         1 KY8       0.182900
     11 C11          3.7090    -1.2880    -2.6790 ca         1 KY8       0.451900
     12 C21          0.2980     3.7220    -0.3470 c3         1 KY8      -0.081400
     13 C22         -0.0330     4.9550    -1.2100 c3         1 KY8       0.148800
     14 C24         -2.0160     0.9360     1.0760 c3         1 KY8       0.180800
     15 C25         -2.7980     0.5290    -0.1930 c3         1 KY8      -0.101400
     16 C26         -3.9450    -0.4480     0.1210 c3         1 KY8       0.240800
     17 C28         -5.7620    -1.6570    -1.2210 ca         1 KY8       0.382900
     18 C30         -7.2920    -2.6460    -2.6060 ca         1 KY8       0.153900
     19 C31         -7.8680    -3.2870    -1.4970 ca         1 KY8      -0.294000
     20 C32         -7.2990    -3.0420    -0.2360 ca         1 KY8       0.153900
     21 N06          2.7480    -0.2090     0.5210 na         1 KY8      -0.284300
     22 N08          2.9720    -2.5290    -0.3290 nb         1 KY8      -0.216000
     23 N10          3.6740    -2.6300    -2.6460 nb         1 KY8      -0.303000
     24 N14          3.3410     0.8680    -1.3880 nd         1 KY8      -0.551100
     25 N19         -0.7510     1.6870     0.8330 n3         1 KY8      -0.722600
     26 N23          1.1860     5.6590    -1.6480 n8         1 KY8      -0.989200
     27 N27         -4.6710    -0.8090    -1.1080 nu         1 KY8      -0.924100
     28 N29         -6.2320    -1.8260    -2.4690 nb         1 KY8      -0.249500
     29 N33         -6.2390    -2.2230    -0.0940 nb         1 KY8      -0.249500
     30 O01          1.6240    -0.3380     4.8920 oh         1 KY8      -0.704000
     31 O04          3.9840     0.2370     3.7510 oh         1 KY8      -0.691000
     32 O16          0.9200    -0.5160     2.0050 os         1 KY8      -0.431000
     33 H1           1.5060     1.6900     4.4220 h1         1 KY8       0.052700
     34 H2           2.9960     1.6160     2.5350 h1         1 KY8       0.049700
     35 H3           2.7800    -1.4010     2.1870 h2         1 KY8       0.120700
     36 H4           3.8950     0.2670    -3.9690 hn         1 KY8       0.506500
     37 H5           4.0120    -1.2950    -4.7030 hn         1 KY8       0.506500
     38 H6           2.8000     1.9710     0.3940 h5         1 KY8       0.063800
     39 H7          -0.4920     0.1850     3.3660 h1         1 KY8       0.092700
     40 H8          -0.4300     2.5200     2.7670 h1         1 KY8       0.034200
     41 H9           1.0280     2.3180     1.8150 h1         1 KY8       0.034200
     42 H10         -1.5530     3.6600     0.7700 h1         1 KY8       0.029700
     43 H11         -1.5760     2.8120    -0.7750 h1         1 KY8       0.029700
     44 H12          3.2750    -4.2730    -1.4270 h5         1 KY8       0.046100
     45 H13          0.8870     4.0490     0.5180 hc         1 KY8       0.053700
     46 H14          0.9160     3.0300    -0.9300 hc         1 KY8       0.053700
     47 H15         -0.5950     4.6420    -2.1010 h1         1 KY8       0.025200
     48 H16         -0.6550     5.6540    -0.6350 h1         1 KY8       0.025200
     49 H17         -2.6810     1.5210     1.7280 h1         1 KY8       0.032700
     50 H18         -1.7920     0.0020     1.6070 h1         1 KY8       0.032700
     51 H19         -3.2190     1.4180    -0.6740 hc         1 KY8       0.058700
     52 H20         -2.1060     0.0590    -0.9020 hc         1 KY8       0.058700
     53 H21         -3.5330    -1.3520     0.5920 h1         1 KY8       0.048700
     54 H22         -4.6330     0.0220     0.8380 h1         1 KY8       0.048700
     55 H23         -7.6810    -2.7900    -3.6130 h4         1 KY8       0.018100
     56 H24         -8.7230    -3.9480    -1.6100 ha         1 KY8       0.133000
     57 H25         -7.6930    -3.5040     0.6670 h4         1 KY8       0.018100
     58 H27          0.9170     6.4980    -2.1760 hn         1 KY8       0.392000
     59 H28          1.6680     6.0390    -0.8240 hn         1 KY8       0.392000
     60 H30         -4.3400    -0.4100    -1.9870 hn         1 KY8       0.508000
     61 H31          2.5970    -0.5160     4.9670 ho         1 KY8       0.523000
     62 H32          4.7840     0.4480     3.2110 ho         1 KY8       0.513000
     63 N12          4.0770    -0.7280    -3.8620 nv         1 KY8      -1.066900
@<TRIPOS>BOND
     1     1     2 1   
     2     1     7 1   
     3     1    30 1   
     4     1    33 1   
     5     2     3 1   
     6     2    31 1   
     7     2    34 1   
     8     3    21 1   
     9     3    32 1   
    10     3    35 1   
    11     4     5 ar  
    12     4    21 1   
    13     4    22 ar  
    14     5    11 ar  
    15     5    24 1   
    16     6    21 1   
    17     6    24 2   
    18     6    38 1   
    19     7     8 1   
    20     7    32 1   
    21     7    39 1   
    22     8    25 1   
    23     8    40 1   
    24     8    41 1   
    25     9    12 1   
    26     9    25 1   
    27     9    42 1   
    28     9    43 1   
    29    10    22 ar  
    30    10    23 ar  
    31    10    44 1   
    32    11    23 ar  
    33    11    63 1   
    34    12    13 1   
    35    12    45 1   
    36    12    46 1   
    37    13    26 1   
    38    13    47 1   
    39    13    48 1   
    40    14    15 1   
    41    14    25 1   
    42    14    49 1   
    43    14    50 1   
    44    15    16 1   
    45    15    51 1   
    46    15    52 1   
    47    16    27 1   
    48    16    53 1   
    49    16    54 1   
    50    17    27 1   
    51    17    28 ar  
    52    17    29 ar  
    53    18    19 ar  
    54    18    28 ar  
    55    18    55 1   
    56    19    20 ar  
    57    19    56 1   
    58    20    29 ar  
    59    20    57 1   
    60    26    58 1   
    61    26    59 1   
    62    27    60 1   
    63    30    61 1   
    64    31    62 1   
    65    36    63 1   
    66    37    63 1   
@<TRIPOS>SUBSTRUCTURE
     1 KY8         1 TEMP              0 ****  ****    0 ROOT
