@<TRIPOS>MOLECULE
KY9
   81    87     1     0     0
SMALL
No Charge or Current Charge


@<TRIPOS>ATOM
      1 C2          -4.6300     0.8930     3.9430 c3         1 KY9       0.212100
      2 C3          -3.4950     0.4560     3.0190 ca         1 KY9      -0.071300
      3 C4          -3.5380     0.7740     1.6480 ca         1 KY9      -0.101500
      4 C5          -2.4970     0.3720     0.7920 ca         1 KY9      -0.087000
      5 C6          -1.4040    -0.3520     1.3020 ca         1 KY9       0.016000
      6 C7          -0.3430    -0.7630     0.4290 cg         1 KY9      -0.070000
      7 C8           0.5670    -1.1180    -0.3030 ch         1 KY9      -0.130000
      8 C10          2.8700    -1.9360    -0.5740 ca         1 KY9      -0.025000
      9 C11          3.9530    -2.3580    -1.3890 ca         1 KY9      -0.193300
     10 C12          5.2930    -2.7920    -0.7820 c3         1 KY9       0.362300
     11 C16          3.7590    -2.3660    -2.7870 ca         1 KY9      -0.023300
     12 N1          -5.9200     0.2190     3.6570 n3         1 KY9      -0.719600
     13 C9           1.6380    -1.5370    -1.1430 ca         1 KY9       0.023000
     14 F13          5.3110    -2.7200     0.5690 f          1 KY9      -0.112333
     15 F14          5.5940    -4.0700    -1.1050 f          1 KY9      -0.112333
     16 F15          6.3120    -2.0220    -1.2250 f          1 KY9      -0.112333
     17 C17          2.5480    -1.9740    -3.3300 ca         1 KY9      -0.164600
     18 C18          2.6250    -2.0790    -4.7950 c          1 KY9       0.584600
     19 N19          3.9080    -2.5550    -5.0950 n          1 KY9      -0.392800
     20 C20          4.3530    -2.7640    -6.5070 c3         1 KY9       0.050400
     21 C21          5.0830    -4.0770    -6.6670 cc         1 KY9       0.206300
     22 C22          6.3440    -4.4400    -6.2830 cd         1 KY9      -0.180300
     23 C23          7.5280    -3.6380    -5.8550 c5         1 KY9      -0.007100
     24 C24          8.7040    -4.6100    -6.3460 c5         1 KY9      -0.097400
     25 C25          7.9920    -5.9670    -6.7930 c5         1 KY9       0.069600
     26 N26          6.5950    -5.6460    -6.7650 na         1 KY9      -0.168500
     27 C27          5.4650    -6.0830    -7.4340 cd         1 KY9       0.409400
     28 N28          4.5250    -5.1300    -7.3580 nc         1 KY9      -0.654000
     29 C29          5.1440    -1.5790    -7.1020 c          1 KY9       0.583100
     30 N30          5.4660    -1.7210    -8.4310 ns         1 KY9      -0.460400
     31 C31          6.2000    -0.8880    -9.2310 cc         1 KY9       0.532300
     32 S32          6.9470     0.6290    -8.7700 ss         1 KY9       0.047600
     33 C33          7.5360     0.7550   -10.4010 cc         1 KY9      -0.313000
     34 C34          7.1430    -0.3220   -11.1590 cd         1 KY9       0.301900
     35 N35          6.3770    -1.2630   -10.4840 nd         1 KY9      -0.704000
     36 O36          5.4780    -0.6060    -6.4400 o          1 KY9      -0.572100
     37 C37          4.7510    -2.7690    -3.8760 c5         1 KY9       0.145300
     38 O38          1.7460    -1.8000    -5.5980 o          1 KY9      -0.533000
     39 C39          1.4690    -1.5540    -2.5410 ca         1 KY9       0.006000
     40 C40         -1.3580    -0.6720     2.6710 ca         1 KY9      -0.087000
     41 C41         -2.3990    -0.2690     3.5260 ca         1 KY9      -0.101500
     42 C42         -5.8510    -1.2610     3.8270 c6         1 KY9       0.167300
     43 C43         -7.1780    -1.9460     3.4190 c6         1 KY9      -0.070900
     44 C44         -8.3810    -1.3650     4.2110 c6         1 KY9      -0.065700
     45 C45         -8.4010     0.1770     4.0490 c6         1 KY9      -0.070900
     46 C46         -7.0410     0.8020     4.4430 c6         1 KY9       0.167300
     47 C47         -9.7380    -1.9970     3.7870 c3         1 KY9       0.167600
     48 O48         -9.7900    -3.4020     4.0650 oh         1 KY9      -0.662000
     49 H1          -4.3370     0.7130     4.9870 h1         1 KY9       0.039200
     50 H2          -4.7490     1.9800     3.8320 h1         1 KY9       0.039200
     51 H3          -4.3830     1.3300     1.2470 ha         1 KY9       0.121500
     52 H4          -2.5430     0.6230    -0.2660 ha         1 KY9       0.120500
     53 H5           2.9750    -1.9140     0.5090 ha         1 KY9       0.139000
     54 H7           3.4540    -2.8360    -7.1310 h1         1 KY9       0.110700
     55 H8           7.5570    -3.4880    -4.7690 hc         1 KY9       0.074700
     56 H9           7.5930    -2.6520    -6.3290 hc         1 KY9       0.074700
     57 H10          9.2360    -4.1650    -7.1940 hc         1 KY9       0.063200
     58 H11          8.3050    -6.2840    -7.7960 h1         1 KY9       0.065700
     59 H12          5.4170    -7.0260    -7.9650 h5         1 KY9       0.064100
     60 H13          5.1360    -2.5670    -8.8710 hn         1 KY9       0.350500
     61 H14          8.1310     1.6080   -10.6990 h4         1 KY9       0.160000
     62 H15          7.3820    -0.4770   -12.2040 h4         1 KY9       0.039100
     63 H16          5.0610    -3.8170    -3.7710 h1         1 KY9       0.082700
     64 H17          5.6370    -2.1220    -3.8750 h1         1 KY9       0.082700
     65 H18          0.5290    -1.2510    -2.9980 ha         1 KY9       0.148000
     66 H19         -0.5160    -1.2320     3.0730 ha         1 KY9       0.120500
     67 H20         -2.3530    -0.5240     4.5830 ha         1 KY9       0.121500
     68 H21         -5.0440    -1.6840     3.2130 h1         1 KY9       0.032200
     69 H22         -5.6250    -1.5120     4.8740 h1         1 KY9       0.032200
     70 H23         -7.3390    -1.8110     2.3400 hc         1 KY9       0.050200
     71 H24         -7.0940    -3.0270     3.5900 hc         1 KY9       0.050200
     72 H25         -8.2470    -1.5990     5.2770 hc         1 KY9       0.056700
     73 H26         -9.1960     0.6130     4.6690 hc         1 KY9       0.050200
     74 H27         -8.6340     0.4430     3.0080 hc         1 KY9       0.050200
     75 H28         -6.8720     0.6450     5.5190 h1         1 KY9       0.032200
     76 H29         -7.0940     1.8890     4.2810 h1         1 KY9       0.032200
     77 H30        -10.5450    -1.4840     4.3280 h1         1 KY9       0.016700
     78 H31         -9.8930    -1.8170     2.7150 h1         1 KY9       0.016700
     79 H32        -10.6730    -3.7180     3.7710 ho         1 KY9       0.442000
     80 H6           9.4500    -4.7810    -5.5610 hc         1 KY9       0.063200
     81 H33          8.2020    -6.7830    -6.0890 h1         1 KY9       0.065700
@<TRIPOS>BOND
     1     1     2 1   
     2     1    12 1   
     3     1    49 1   
     4     1    50 1   
     5     2     3 ar  
     6     2    41 ar  
     7     3     4 ar  
     8     3    51 1   
     9     4     5 ar  
    10     4    52 1   
    11     5     6 1   
    12     5    40 ar  
    13     6     7 3   
    14     7    13 1   
    15     8     9 ar  
    16     8    13 ar  
    17     8    53 1   
    18     9    10 1   
    19     9    11 ar  
    20    10    14 1   
    21    10    15 1   
    22    10    16 1   
    23    11    17 ar  
    24    11    37 1   
    25    12    42 1   
    26    12    46 1   
    27    13    39 ar  
    28    17    18 1   
    29    17    39 ar  
    30    18    19 1   
    31    18    38 2   
    32    19    20 1   
    33    19    37 1   
    34    20    21 1   
    35    20    29 1   
    36    20    54 1   
    37    21    22 2   
    38    21    28 1   
    39    22    23 1   
    40    22    26 1   
    41    23    24 1   
    42    23    55 1   
    43    23    56 1   
    44    24    25 1   
    45    24    57 1   
    46    24    80 1   
    47    25    26 1   
    48    25    58 1   
    49    25    81 1   
    50    26    27 1   
    51    27    28 2   
    52    27    59 1   
    53    29    30 1   
    54    29    36 2   
    55    30    31 1   
    56    30    60 1   
    57    31    32 1   
    58    31    35 2   
    59    32    33 1   
    60    33    34 2   
    61    33    61 1   
    62    34    35 1   
    63    34    62 1   
    64    37    63 1   
    65    37    64 1   
    66    39    65 1   
    67    40    41 ar  
    68    40    66 1   
    69    41    67 1   
    70    42    43 1   
    71    42    68 1   
    72    42    69 1   
    73    43    44 1   
    74    43    70 1   
    75    43    71 1   
    76    44    45 1   
    77    44    47 1   
    78    44    72 1   
    79    45    46 1   
    80    45    73 1   
    81    45    74 1   
    82    46    75 1   
    83    46    76 1   
    84    47    48 1   
    85    47    77 1   
    86    47    78 1   
    87    48    79 1   
@<TRIPOS>SUBSTRUCTURE
     1 KY9         1 TEMP              0 ****  ****    0 ROOT
