@<TRIPOS>MOLECULE
KY9
   81    87     1     0     0
SMALL
abcg2


@<TRIPOS>ATOM
      1 C2          -4.5370     1.0160     3.6130 c3         1 KY9       0.212100
      2 C3          -3.4040     0.4610     2.7930 ca         1 KY9      -0.071300
      3 C4          -3.5380     0.3270     1.4110 ca         1 KY9      -0.101500
      4 C5          -2.4970    -0.1540     0.6400 ca         1 KY9      -0.087000
      5 C6          -1.2860    -0.5230     1.2390 ca         1 KY9       0.016000
      6 C7          -0.2210    -1.0320     0.4460 cg         1 KY9      -0.070000
      7 C8           0.6700    -1.4690    -0.2410 ch         1 KY9      -0.130000
      8 C10          2.8480    -2.5540    -0.5280 ca         1 KY9      -0.025000
      9 C11          3.8580    -3.0660    -1.3300 ca         1 KY9      -0.193300
     10 C12          5.0540    -3.7250    -0.7140 c3         1 KY9       0.362300
     11 C16          3.7080    -3.0090    -2.7120 ca         1 KY9      -0.023300
     12 N1          -5.7900     0.3360     3.3550 n3         1 KY9      -0.719600
     13 C9           1.6930    -1.9840    -1.0830 ca         1 KY9       0.023000
     14 F13          5.1790    -3.4510     0.5850 f          1 KY9      -0.112333
     15 F14          4.9820    -5.0580    -0.8310 f          1 KY9      -0.112333
     16 F15          6.1930    -3.3490    -1.3080 f          1 KY9      -0.112333
     17 C17          2.5600    -2.4510    -3.2460 ca         1 KY9      -0.164600
     18 C18          2.6410    -2.5110    -4.7180 c          1 KY9       0.584600
     19 N19          3.8000    -3.1550    -4.9990 n          1 KY9      -0.392800
     20 C20          4.2850    -3.2410    -6.3520 c3         1 KY9       0.050400
     21 C21          5.3180    -4.3060    -6.5250 cc         1 KY9       0.206300
     22 C22          6.6820    -4.1950    -6.5880 cd         1 KY9      -0.180300
     23 C23          7.8340    -3.2480    -6.5280 c5         1 KY9      -0.007100
     24 C24          8.9870    -4.1190    -7.0760 c5         1 KY9      -0.097400
     25 C25          8.5820    -5.5740    -6.7940 c5         1 KY9       0.069600
     26 N26          7.1340    -5.4660    -6.7390 na         1 KY9      -0.168500
     27 C27          6.0750    -6.2960    -6.7530 cd         1 KY9       0.409400
     28 N28          4.9570    -5.6220    -6.6330 nc         1 KY9      -0.654000
     29 C29          4.8390    -1.8850    -6.7800 c          1 KY9       0.583100
     30 N30          4.9140    -1.6930    -8.1190 ns         1 KY9      -0.460400
     31 C31          5.4370    -0.5670    -8.7140 cc         1 KY9       0.532300
     32 S32          6.0860     0.7590    -7.8110 ss         1 KY9       0.047600
     33 C33          6.4370     1.5410    -9.3060 cc         1 KY9      -0.313000
     34 C34          6.0430     0.7600   -10.3390 cd         1 KY9       0.301900
     35 N35          5.4770    -0.4360   -10.0000 nd         1 KY9      -0.704000
     36 O36          5.2080    -1.0460    -5.9840 o          1 KY9      -0.572100
     37 C37          4.6000    -3.4600    -3.8300 c5         1 KY9       0.145300
     38 O38          1.8460    -2.0750    -5.5300 o          1 KY9      -0.533000
     39 C39          1.5460    -1.9330    -2.4690 ca         1 KY9       0.006000
     40 C40         -1.1480    -0.3940     2.6220 ca         1 KY9      -0.087000
     41 C41         -2.1990     0.0920     3.3830 ca         1 KY9      -0.101500
     42 C42         -5.7760    -1.0250     3.8610 c6         1 KY9       0.167300
     43 C43         -7.0550    -1.7670     3.5060 c6         1 KY9      -0.070900
     44 C44         -8.2830    -1.0240     4.0250 c6         1 KY9      -0.065700
     45 C45         -8.2350     0.4180     3.5300 c6         1 KY9      -0.070900
     46 C46         -6.9160     1.0830     3.8870 c6         1 KY9       0.167300
     47 C47         -9.5900    -1.6790     3.6170 c3         1 KY9       0.167600
     48 O48         -9.6520    -2.9870     4.1400 oh         1 KY9      -0.662000
     49 H1          -4.2620     0.9930     4.6810 h1         1 KY9       0.039200
     50 H2          -4.6670     2.0710     3.3550 h1         1 KY9       0.039200
     51 H3          -4.4730     0.5990     0.9370 ha         1 KY9       0.121500
     52 H4          -2.6140    -0.2490    -0.4320 ha         1 KY9       0.120500
     53 H5           2.9340    -2.5870     0.5490 ha         1 KY9       0.139000
     54 H7           3.4320    -3.4890    -6.9940 h1         1 KY9       0.110700
     55 H8           8.0220    -2.9360    -5.4980 hc         1 KY9       0.074700
     56 H9           7.6950    -2.3450    -7.1200 hc         1 KY9       0.074700
     57 H10          9.0750    -3.9680    -8.1520 hc         1 KY9       0.063200
     58 H11          8.8950    -6.2650    -7.5750 h1         1 KY9       0.065700
     59 H12          6.1620    -7.3660    -6.8640 h5         1 KY9       0.064100
     60 H13          4.5750    -2.4040    -8.7550 hn         1 KY9       0.350500
     61 H14          6.9010     2.5140    -9.3370 h4         1 KY9       0.160000
     62 H15          6.1460     1.0190   -11.3830 h4         1 KY9       0.039100
     63 H16          4.8320    -4.5260    -3.7720 h1         1 KY9       0.082700
     64 H17          5.5450    -2.9120    -3.8430 h1         1 KY9       0.082700
     65 H18          0.6610    -1.5010    -2.9170 ha         1 KY9       0.148000
     66 H19         -0.2200    -0.6810     3.0990 ha         1 KY9       0.120500
     67 H20         -2.0810     0.1800     4.4570 ha         1 KY9       0.121500
     68 H21         -4.9190    -1.5540     3.4380 h1         1 KY9       0.032200
     69 H22         -5.6420    -1.0370     4.9580 h1         1 KY9       0.032200
     70 H23         -7.1250    -1.8680     2.4170 hc         1 KY9       0.050200
     71 H24         -7.0040    -2.7760     3.9190 hc         1 KY9       0.050200
     72 H25         -8.2360    -1.0050     5.1220 hc         1 KY9       0.056700
     73 H26         -9.0560     0.9980     3.9600 hc         1 KY9       0.050200
     74 H27         -8.3630     0.4400     2.4430 hc         1 KY9       0.050200
     75 H28         -6.8470     1.1880     4.9850 h1         1 KY9       0.032200
     76 H29         -6.8890     2.0940     3.4730 h1         1 KY9       0.032200
     77 H30        -10.4250    -1.0650     3.9830 h1         1 KY9       0.016700
     78 H31         -9.6570    -1.6810     2.5190 h1         1 KY9       0.016700
     79 H32        -10.4620    -3.3990     3.8250 ho         1 KY9       0.442000
     80 H6           9.9470    -3.8710    -6.6270 hc         1 KY9       0.063200
     81 H33          8.9640    -5.9340    -5.8380 h1         1 KY9       0.065700
@<TRIPOS>BOND
     1     1     2 1   
     2     1    12 1   
     3     1    49 1   
     4     1    50 1   
     5     2     3 ar  
     6     2    41 ar  
     7     3     4 ar  
     8     3    51 1   
     9     4     5 ar  
    10     4    52 1   
    11     5     6 1   
    12     5    40 ar  
    13     6     7 3   
    14     7    13 1   
    15     8     9 ar  
    16     8    13 ar  
    17     8    53 1   
    18     9    10 1   
    19     9    11 ar  
    20    10    14 1   
    21    10    15 1   
    22    10    16 1   
    23    11    17 ar  
    24    11    37 1   
    25    12    42 1   
    26    12    46 1   
    27    13    39 ar  
    28    17    18 1   
    29    17    39 ar  
    30    18    19 1   
    31    18    38 2   
    32    19    20 1   
    33    19    37 1   
    34    20    21 1   
    35    20    29 1   
    36    20    54 1   
    37    21    22 2   
    38    21    28 1   
    39    22    23 1   
    40    22    26 1   
    41    23    24 1   
    42    23    55 1   
    43    23    56 1   
    44    24    25 1   
    45    24    57 1   
    46    24    80 1   
    47    25    26 1   
    48    25    58 1   
    49    25    81 1   
    50    26    27 1   
    51    27    28 2   
    52    27    59 1   
    53    29    30 1   
    54    29    36 2   
    55    30    31 1   
    56    30    60 1   
    57    31    32 1   
    58    31    35 2   
    59    32    33 1   
    60    33    34 2   
    61    33    61 1   
    62    34    35 1   
    63    34    62 1   
    64    37    63 1   
    65    37    64 1   
    66    39    65 1   
    67    40    41 ar  
    68    40    66 1   
    69    41    67 1   
    70    42    43 1   
    71    42    68 1   
    72    42    69 1   
    73    43    44 1   
    74    43    70 1   
    75    43    71 1   
    76    44    45 1   
    77    44    47 1   
    78    44    72 1   
    79    45    46 1   
    80    45    73 1   
    81    45    74 1   
    82    46    75 1   
    83    46    76 1   
    84    47    48 1   
    85    47    77 1   
    86    47    78 1   
    87    48    79 1   
@<TRIPOS>SUBSTRUCTURE
     1 KY9         1 TEMP              0 ****  ****    0 ROOT
