@<TRIPOS>MOLECULE
KYA
   20    21     1     0     0
SMALL
No Charge or Current Charge


@<TRIPOS>ATOM
      1 N          -21.5290     6.2940    -5.8780 nb         1 KYA      -0.659000
      2 C1         -22.5680     7.9660    -7.2900 ca         1 KYA      -0.115000
      3 O1         -21.1740     9.2920    -8.7590 oh         1 KYA      -0.555100
      4 C2         -22.6340     6.9410    -6.3140 ca         1 KYA       0.284000
      5 O2         -19.1420     4.9930    -5.0240 o          1 KYA      -0.698500
      6 C3         -21.3090     8.3130    -7.8150 ca         1 KYA       0.127100
      7 O3         -17.9320     6.1820    -6.3340 o          1 KYA      -0.698500
      8 C4         -23.7500     8.6140    -7.7160 ca         1 KYA      -0.069000
      9 C5         -23.8910     6.5880    -5.7850 ca         1 KYA      -0.090000
     10 C6         -20.1740     7.6380    -7.3560 ca         1 KYA      -0.219000
     11 C7         -20.2990     6.6240    -6.3800 ca         1 KYA       0.339500
     12 C8         -24.9930     8.2470    -7.1760 ca         1 KYA      -0.154000
     13 C9         -25.0640     7.2340    -6.2100 ca         1 KYA      -0.121000
     14 C10        -19.0280     5.8740    -5.8730 c          1 KYA       0.605500
     15 HO1        -20.2240     9.3780    -8.9890 ho         1 KYA       0.459000
     16 H4         -23.7130     9.4020    -8.4650 ha         1 KYA       0.110000
     17 H5         -23.9530     5.8040    -5.0360 ha         1 KYA       0.125000
     18 H6         -19.1920     7.8890    -7.7460 ha         1 KYA       0.142000
     19 H8         -25.8990     8.7490    -7.5070 ha         1 KYA       0.093000
     20 H9         -26.0260     6.9470    -5.7890 ha         1 KYA       0.094000
@<TRIPOS>BOND
     1     1     4 ar  
     2     1    11 ar  
     3     2     4 ar  
     4     2     6 ar  
     5     2     8 ar  
     6     3     6 1   
     7     3    15 1   
     8     4     9 ar  
     9     5    14 1   
    10     6    10 ar  
    11     7    14 1   
    12     8    12 ar  
    13     8    16 1   
    14     9    13 ar  
    15     9    17 1   
    16    10    11 ar  
    17    10    18 1   
    18    11    14 1   
    19    12    13 ar  
    20    12    19 1   
    21    13    20 1   
@<TRIPOS>SUBSTRUCTURE
     1 KYA         1 TEMP              0 ****  ****    0 ROOT
