@<TRIPOS>MOLECULE
KYA
   20    21     1     0     0
SMALL
abcg2


@<TRIPOS>ATOM
      1 N          -21.5060     6.2880    -5.8710 nb         1 KYA      -0.659000
      2 C1         -22.5580     7.9730    -7.3040 ca         1 KYA      -0.115000
      3 O1         -21.2120     9.2580    -8.7680 oh         1 KYA      -0.555100
      4 C2         -22.6110     6.9490    -6.3150 ca         1 KYA       0.284000
      5 O2         -19.2580     4.8280    -5.2080 o          1 KYA      -0.698500
      6 C3         -21.2750     8.2940    -7.8220 ca         1 KYA       0.127100
      7 O3         -17.9760     6.4000    -6.1680 o          1 KYA      -0.698500
      8 C4         -23.7480     8.6110    -7.7210 ca         1 KYA      -0.069000
      9 C5         -23.8740     6.6030    -5.7750 ca         1 KYA      -0.090000
     10 C6         -20.1730     7.6270    -7.3490 ca         1 KYA      -0.219000
     11 C7         -20.3330     6.6210    -6.3720 ca         1 KYA       0.339500
     12 C8         -24.9550     8.2480    -7.1770 ca         1 KYA      -0.154000
     13 C9         -25.0170     7.2350    -6.1970 ca         1 KYA      -0.121000
     14 C10        -19.0790     5.8780    -5.8660 c          1 KYA       0.605500
     15 HO1        -20.2940     9.3920    -9.0430 ho         1 KYA       0.459000
     16 H4         -23.6950     9.3870    -8.4720 ha         1 KYA       0.110000
     17 H5         -23.9080     5.8240    -5.0240 ha         1 KYA       0.125000
     18 H6         -19.1820     7.8560    -7.7150 ha         1 KYA       0.142000
     19 H8         -25.8640     8.7390    -7.4990 ha         1 KYA       0.093000
     20 H9         -25.9750     6.9580    -5.7760 ha         1 KYA       0.094000
@<TRIPOS>BOND
     1     1     4 ar  
     2     1    11 ar  
     3     2     4 ar  
     4     2     6 ar  
     5     2     8 ar  
     6     3     6 1   
     7     3    15 1   
     8     4     9 ar  
     9     5    14 1   
    10     6    10 ar  
    11     7    14 1   
    12     8    12 ar  
    13     8    16 1   
    14     9    13 ar  
    15     9    17 1   
    16    10    11 ar  
    17    10    18 1   
    18    11    14 1   
    19    12    13 ar  
    20    12    19 1   
    21    13    20 1   
@<TRIPOS>SUBSTRUCTURE
     1 KYA         1 TEMP              0 ****  ****    0 ROOT
