@<TRIPOS>MOLECULE
KYC
   39    40     1     0     0
SMALL
No Charge or Current Charge


@<TRIPOS>ATOM
      1 N1           8.2800     0.3890    21.4410 ns         1 KYC      -0.140000
      2 C4           7.4830     0.9190    20.3850 ca         1 KYC      -0.073000
      3 C5           7.1520     2.2950    20.2790 ca         1 KYC       0.319900
      4 C6           5.9310     1.9500    18.3400 ca         1 KYC       0.309900
      5 C7           6.2030     0.5730    18.3620 ca         1 KYC      -0.141000
      6 C8           6.9900     0.0360    19.3970 ca         1 KYC      -0.090300
      7 C10         11.0230    -0.4560    22.6910 ca         1 KYC      -0.083300
      8 C13         13.4030    -1.2210    21.3760 ca         1 KYC      -0.092000
      9 C15         11.0070    -1.4780    21.7170 ca         1 KYC      -0.082000
     10 C14         12.1910    -1.8570    21.0650 ca         1 KYC       0.120000
     11 C12         13.4300    -0.2030    22.3440 ca         1 KYC      -0.102000
     12 C11         12.2440     0.1780    22.9980 ca         1 KYC      -0.090000
     13 C2           9.7320    -0.0230    23.3970 c3         1 KYC       0.136800
     14 N            8.9240    -1.1960    23.8960 n3         1 KYC      -0.732600
     15 C1           9.6990    -2.1110    24.7720 c3         1 KYC       0.141100
     16 C            7.6450    -0.7970    24.5360 c3         1 KYC       0.141100
     17 C3           8.9910     0.9920    22.4690 c          1 KYC       0.602100
     18 O            9.0510     2.2070    22.6400 o          1 KYC      -0.578100
     19 C9           7.2970    -1.4590    19.4300 c3         1 KYC      -0.051800
     20 N2           6.3920     2.8040    19.2800 nb         1 KYC      -0.644000
     21 H1           8.3290    -0.6210    21.4580 hn         1 KYC       0.180000
     22 H2           7.4880     3.0230    21.0130 h4         1 KYC       0.050100
     23 H3           5.3230     2.3830    17.5460 h4         1 KYC       0.021100
     24 H4           5.8030    -0.0620    17.5770 ha         1 KYC       0.120000
     25 H5          14.3180    -1.5170    20.8700 ha         1 KYC       0.132000
     26 H6          10.0790    -1.9870    21.4700 ha         1 KYC       0.136000
     27 H7          14.3680     0.2920    22.5870 ha         1 KYC       0.122000
     28 H8          12.2770     0.9710    23.7430 ha         1 KYC       0.121000
     29 H9          10.0270     0.5710    24.2730 h1         1 KYC       0.066700
     30 H11          9.0820    -2.9640    25.0850 h1         1 KYC       0.041367
     31 H12         10.5790    -2.5160    24.2560 h1         1 KYC       0.041367
     32 H13         10.0430    -1.5890    25.6760 h1         1 KYC       0.041367
     33 H14          7.0750    -1.6820    24.8480 h1         1 KYC       0.041367
     34 H15          7.8290    -0.1790    25.4260 h1         1 KYC       0.041367
     35 H16          7.0110    -0.2250    23.8460 h1         1 KYC       0.041367
     36 H17          8.3770    -1.6420    19.3600 hc         1 KYC       0.047033
     37 H18          6.9350    -1.9180    20.3580 hc         1 KYC       0.047033
     38 H19          6.8220    -1.9890    18.5960 hc         1 KYC       0.047033
     39 Cl          12.1540    -3.1330    19.8550 cl         1 KYC      -0.209000
@<TRIPOS>BOND
     1     1     2 1   
     2     1    17 1   
     3     1    21 1   
     4     2     3 ar  
     5     2     6 ar  
     6     3    20 ar  
     7     3    22 1   
     8     4     5 ar  
     9     4    20 ar  
    10     4    23 1   
    11     5     6 ar  
    12     5    24 1   
    13     6    19 1   
    14     7     9 ar  
    15     7    12 ar  
    16     7    13 1   
    17     8    10 ar  
    18     8    11 ar  
    19     8    25 1   
    20     9    10 ar  
    21     9    26 1   
    22    10    39 1   
    23    11    12 ar  
    24    11    27 1   
    25    12    28 1   
    26    13    14 1   
    27    13    17 1   
    28    13    29 1   
    29    14    15 1   
    30    14    16 1   
    31    15    30 1   
    32    15    31 1   
    33    15    32 1   
    34    16    33 1   
    35    16    34 1   
    36    16    35 1   
    37    17    18 2   
    38    19    36 1   
    39    19    37 1   
    40    19    38 1   
@<TRIPOS>SUBSTRUCTURE
     1 KYC         1 TEMP              0 ****  ****    0 ROOT
