@<TRIPOS>MOLECULE
KYC
   39    40     1     0     0
SMALL
abcg2


@<TRIPOS>ATOM
      1 N1           8.3170     0.2420    21.3330 ns         1 KYC      -0.140000
      2 C4           7.5780     0.7590    20.2620 ca         1 KYC      -0.073000
      3 C5           7.8360     2.0160    19.7090 ca         1 KYC       0.319900
      4 C6           6.1730     1.7700    18.1590 ca         1 KYC       0.309900
      5 C7           5.8540     0.5060    18.6380 ca         1 KYC      -0.141000
      6 C8           6.5550    -0.0310    19.7110 ca         1 KYC      -0.090300
      7 C10         11.1500    -0.3360    22.7390 ca         1 KYC      -0.083300
      8 C13         13.7400    -0.8080    21.7810 ca         1 KYC      -0.092000
      9 C15         11.3380    -1.0580    21.5600 ca         1 KYC      -0.082000
     10 C14         12.6260    -1.2850    21.1020 ca         1 KYC       0.120000
     11 C12         13.5440    -0.0860    22.9500 ca         1 KYC      -0.102000
     12 C11         12.2580     0.1500    23.4270 ca         1 KYC      -0.090000
     13 C2           9.7530    -0.0480    23.2590 c3         1 KYC       0.136800
     14 N            8.9490    -1.2540    23.4780 n3         1 KYC      -0.732600
     15 C1           9.6720    -2.3170    24.1770 c3         1 KYC       0.141100
     16 C            7.7260    -0.9230    24.2150 c3         1 KYC       0.141100
     17 C3           9.0770     0.8950    22.2450 c          1 KYC       0.602100
     18 O            9.2790     2.1020    22.2730 o          1 KYC      -0.578100
     19 C9           6.2320    -1.3910    20.2550 c3         1 KYC      -0.051800
     20 N2           7.1480     2.5160    18.6800 nb         1 KYC      -0.644000
     21 H1           8.2140    -0.7450    21.5480 hn         1 KYC       0.180000
     22 H2           8.6230     2.6300    20.1200 h4         1 KYC       0.050100
     23 H3           5.6250     2.1940    17.3240 h4         1 KYC       0.021100
     24 H4           5.0540    -0.0610    18.1790 ha         1 KYC       0.120000
     25 H5          14.7350    -0.9990    21.4020 ha         1 KYC       0.132000
     26 H6          10.4950    -1.4480    21.0080 ha         1 KYC       0.136000
     27 H7          14.4000     0.2930    23.4940 ha         1 KYC       0.122000
     28 H8          12.1140     0.7090    24.3430 ha         1 KYC       0.121000
     29 H9           9.8540     0.5380    24.1820 h1         1 KYC       0.066700
     30 H11          9.0000    -3.1650    24.3060 h1         1 KYC       0.041367
     31 H12         10.5320    -2.6440    23.5980 h1         1 KYC       0.041367
     32 H13         10.0200    -1.9980    25.1710 h1         1 KYC       0.041367
     33 H14          7.1040    -1.8140    24.2940 h1         1 KYC       0.041367
     34 H15          7.9490    -0.5590    25.2290 h1         1 KYC       0.041367
     35 H16          7.1570    -0.1550    23.6930 h1         1 KYC       0.041367
     36 H17          7.0800    -2.0730    20.1460 hc         1 KYC       0.047033
     37 H18          5.9900    -1.3430    21.3200 hc         1 KYC       0.047033
     38 H19          5.3830    -1.8230    19.7280 hc         1 KYC       0.047033
     39 CL          12.8520    -2.1990    19.6230 cl         1 KYC      -0.209000
@<TRIPOS>BOND
     1     1     2 1   
     2     1    17 1   
     3     1    21 1   
     4     2     3 ar  
     5     2     6 ar  
     6     3    20 ar  
     7     3    22 1   
     8     4     5 ar  
     9     4    20 ar  
    10     4    23 1   
    11     5     6 ar  
    12     5    24 1   
    13     6    19 1   
    14     7     9 ar  
    15     7    12 ar  
    16     7    13 1   
    17     8    10 ar  
    18     8    11 ar  
    19     8    25 1   
    20     9    10 ar  
    21     9    26 1   
    22    10    39 1   
    23    11    12 ar  
    24    11    27 1   
    25    12    28 1   
    26    13    14 1   
    27    13    17 1   
    28    13    29 1   
    29    14    15 1   
    30    14    16 1   
    31    15    30 1   
    32    15    31 1   
    33    15    32 1   
    34    16    33 1   
    35    16    34 1   
    36    16    35 1   
    37    17    18 2   
    38    19    36 1   
    39    19    37 1   
    40    19    38 1   
@<TRIPOS>SUBSTRUCTURE
     1 KYC         1 TEMP              0 ****  ****    0 ROOT
