@<TRIPOS>MOLECULE
KYD
   17    17     1     0     0
SMALL
bcc


@<TRIPOS>ATOM
      1 C1           0.3930     2.5600     0.1520 c3         1 KYD      -0.098400
      2 C2           0.7290     1.1080     0.1160 cc         1 KYD       0.342600
      3 N3           1.9860     0.7260     0.2370 nd         1 KYD      -0.594800
      4 N4           1.9530    -0.6070     0.1630 na         1 KYD      -0.041600
      5 C6           0.7190    -1.1070    -0.0050 cd         1 KYD      -0.087600
      6 C7           0.4920    -2.5740    -0.1130 c3         1 KYD      -0.025800
      7 C8          -0.1320    -0.0110    -0.0410 cc         1 KYD      -0.282900
      8 C9          -1.6220     0.0060    -0.2010 c          1 KYD       0.949200
      9 O10         -2.1710     1.1270    -0.1810 o          1 KYD      -0.840300
     10 O11         -2.2040    -1.0910    -0.3460 o          1 KYD      -0.840300
     11 H11C        -0.0730     2.8850    -0.7780 hc         1 KYD       0.036033
     12 H12C        -0.3110     2.7880     0.9500 hc         1 KYD       0.036033
     13 H13C         1.2970     3.1480     0.3070 hc         1 KYD       0.036033
     14 H4           2.8130    -1.1280     0.2290 hn         1 KYD       0.283700
     15 H71C         0.8190    -3.0940     0.7890 hc         1 KYD       0.042700
     16 H72C        -0.5640    -2.7700    -0.2630 hc         1 KYD       0.042700
     17 H73C         1.0470    -2.9970    -0.9520 hc         1 KYD       0.042700
@<TRIPOS>BOND
     1     1     2 1   
     2     1    11 1   
     3     1    12 1   
     4     1    13 1   
     5     2     3 2   
     6     2     7 1   
     7     3     4 1   
     8     4     5 1   
     9     4    14 1   
    10     5     6 1   
    11     5     7 2   
    12     6    15 1   
    13     6    16 1   
    14     6    17 1   
    15     7     8 1   
    16     8     9 1   
    17     8    10 1   
@<TRIPOS>SUBSTRUCTURE
     1 KYD         1 TEMP              0 ****  ****    0 ROOT
