@<TRIPOS>MOLECULE
KYD
   17    17     1     0     0
SMALL
No Charge or Current Charge


@<TRIPOS>ATOM
      1 C1           0.3500     2.5590     0.1540 c3         1 KYD      -0.098400
      2 C2           0.7890     1.1180     0.0690 cc         1 KYD       0.277300
      3 N3           2.0700     0.7960     0.0440 nd         1 KYD      -0.594800
      4 N4           2.0460    -0.5910    -0.0360 na         1 KYD      -0.041200
      5 C6           0.7460    -1.1050    -0.0590 cd         1 KYD      -0.138300
      6 C7           0.4390    -2.5810    -0.1420 c3         1 KYD      -0.025800
      7 C8          -0.0730    -0.0030     0.0090 cc         1 KYD      -0.217600
      8 C9          -1.5660     0.0050     0.0170 c          1 KYD       0.738600
      9 O10         -2.1650     1.0670     0.0810 o          1 KYD      -0.735000
     10 O11         -2.1650    -1.0590    -0.0410 o          1 KYD      -0.735000
     11 H11C        -0.2520     2.8370    -0.7180 hc         1 KYD       0.036033
     12 H12C        -0.2430     2.7350     1.0590 hc         1 KYD       0.036033
     13 H13C         1.2120     3.2370     0.1890 hc         1 KYD       0.036033
     14 H4           2.9060    -1.1380    -0.0720 hn         1 KYD       0.334000
     15 H71C        -0.1360    -2.9140     0.7300 hc         1 KYD       0.042700
     16 H72C        -0.1450    -2.8120    -1.0410 hc         1 KYD       0.042700
     17 H73C         1.3560    -3.1810    -0.1810 hc         1 KYD       0.042700
@<TRIPOS>BOND
     1     1     2 1   
     2     1    11 1   
     3     1    12 1   
     4     1    13 1   
     5     2     3 2   
     6     2     7 1   
     7     3     4 1   
     8     4     5 1   
     9     4    14 1   
    10     5     6 1   
    11     5     7 2   
    12     6    15 1   
    13     6    16 1   
    14     6    17 1   
    15     7     8 1   
    16     8     9 1   
    17     8    10 1   
@<TRIPOS>SUBSTRUCTURE
     1 KYD         1 TEMP              0 ****  ****    0 ROOT
