@<TRIPOS>MOLECULE
KYF
   51    54     1     0     0
SMALL
No Charge or Current Charge


@<TRIPOS>ATOM
      1 C10        -14.2370   -21.2600     4.4900 c6         1 KYF      -0.104900
      2 N12        -16.0160   -18.0070     0.1680 ns         1 KYF      -0.482900
      3 C13        -17.2600   -17.2900    -0.1550 c3         1 KYF       0.126100
      4 C15        -17.0530   -15.7750     0.1120 c3         1 KYF      -0.099600
      5 C17        -19.3850   -17.1420     1.3430 cc         1 KYF      -0.240000
      6 C21        -19.9850   -20.9400     1.8590 ca         1 KYF      -0.149500
      7 C22        -19.1550   -22.0100     1.4420 ca         1 KYF      -0.057000
      8 C24        -20.6440   -23.6180     2.4910 ca         1 KYF       0.184000
      9 C26        -21.4820   -22.5750     2.9070 ca         1 KYF      -0.158000
     10 C02        -15.5240   -18.2180     1.4270 c          1 KYF       0.644100
     11 C04        -13.9300   -19.6950     2.5350 c6         1 KYF       0.164300
     12 C05        -12.6200   -20.4880     2.1860 c6         1 KYF       0.145800
     13 C08        -15.2120   -21.8670     2.2600 c6         1 KYF      -0.104900
     14 C09        -14.9340   -20.6770     3.2260 c6         1 KYF      -0.092700
     15 C11        -12.9280   -22.0080     4.0800 c6         1 KYF       0.144300
     16 C14        -17.5390   -17.4970    -1.6630 c3         1 KYF      -0.099600
     17 C16        -18.4350   -17.8650     0.6540 cd         1 KYF       0.278300
     18 C19        -19.6300   -19.5480     1.5230 cc         1 KYF       0.495900
     19 C23        -19.4830   -23.3400     1.7590 ca         1 KYF      -0.158000
     20 C27        -21.1580   -21.2430     2.5940 ca         1 KYF      -0.057000
     21 F25        -20.9580   -24.8970     2.7950 f          1 KYF      -0.174000
     22 N06        -12.7140   -21.9310     2.6010 n3         1 KYF      -0.677600
     23 N20        -18.5940   -19.2460     0.7510 nd         1 KYF      -0.655000
     24 O01        -15.9550   -17.7250     2.4570 o          1 KYF      -0.540000
     25 O03        -14.4990   -19.1100     1.3420 os         1 KYF      -0.465100
     26 S18        -20.5190   -18.1810     2.1530 ss         1 KYF      -0.017400
     27 H1         -14.0020   -20.4550     5.2000 hc         1 KYF       0.049200
     28 H2         -14.9130   -21.9490     5.0150 hc         1 KYF       0.049200
     29 H3         -15.5520   -18.5220    -0.5660 hn         1 KYF       0.322500
     30 H4         -16.9020   -15.5740     1.1790 hc         1 KYF       0.049533
     31 H5         -16.1740   -15.4010    -0.4280 hc         1 KYF       0.049533
     32 H6         -17.9220   -15.1950    -0.2210 hc         1 KYF       0.049533
     33 H7         -19.4890   -16.0700     1.4350 h4         1 KYF       0.164000
     34 H8         -18.2480   -21.8170     0.8720 ha         1 KYF       0.129000
     35 H9         -22.3820   -22.8000     3.4730 ha         1 KYF       0.135000
     36 H10        -13.6700   -18.8840     3.2320 h1         1 KYF       0.070700
     37 H11        -12.4300   -20.4150     1.1050 h1         1 KYF       0.066700
     38 H12        -11.7690   -20.0030     2.6860 h1         1 KYF       0.066700
     39 H13        -13.9340   -23.6410     2.1630 h1         1 KYF       0.053700
     40 H14        -13.7200   -22.5320     0.8050 h1         1 KYF       0.053700
     41 H15        -15.7100   -21.5140     1.3470 hc         1 KYF       0.049200
     42 H16        -15.8980   -22.5850     2.7280 hc         1 KYF       0.049200
     43 H17        -15.8680   -20.1710     3.5040 hc         1 KYF       0.079700
     44 H18        -12.9930   -23.0580     4.4030 h1         1 KYF       0.053700
     45 H19        -12.0740   -21.5660     4.6150 h1         1 KYF       0.053700
     46 H20        -18.4650   -16.9900    -1.9590 hc         1 KYF       0.049533
     47 H21        -16.7210   -17.0950    -2.2740 hc         1 KYF       0.049533
     48 H22        -17.6470   -18.5620    -1.9000 hc         1 KYF       0.049533
     49 H23        -18.8380   -24.1530     1.4370 ha         1 KYF       0.135000
     50 H24        -21.8300   -20.4560     2.9290 ha         1 KYF       0.129000
     51 C07        -13.8670   -22.5750     1.8950 c6         1 KYF       0.144300
@<TRIPOS>BOND
     1     1    14 1   
     2     1    15 1   
     3     1    27 1   
     4     1    28 1   
     5     2     3 1   
     6     2    10 1   
     7     2    29 1   
     8     3     4 1   
     9     3    16 1   
    10     3    17 1   
    11     4    30 1   
    12     4    31 1   
    13     4    32 1   
    14     5    17 2   
    15     5    26 1   
    16     5    33 1   
    17     6     7 ar  
    18     6    18 1   
    19     6    20 ar  
    20     7    19 ar  
    21     7    34 1   
    22     8     9 ar  
    23     8    19 ar  
    24     8    21 1   
    25     9    20 ar  
    26     9    35 1   
    27    10    24 2   
    28    10    25 1   
    29    11    12 1   
    30    11    14 1   
    31    11    25 1   
    32    11    36 1   
    33    12    22 1   
    34    12    37 1   
    35    12    38 1   
    36    13    14 1   
    37    13    41 1   
    38    13    42 1   
    39    13    51 1   
    40    14    43 1   
    41    15    22 1   
    42    15    44 1   
    43    15    45 1   
    44    16    46 1   
    45    16    47 1   
    46    16    48 1   
    47    17    23 1   
    48    18    23 2   
    49    18    26 1   
    50    19    49 1   
    51    20    50 1   
    52    22    51 1   
    53    39    51 1   
    54    40    51 1   
@<TRIPOS>SUBSTRUCTURE
     1 KYF         1 TEMP              0 ****  ****    0 ROOT
