@<TRIPOS>MOLECULE
KYF
   51    54     1     0     0
SMALL
bcc


@<TRIPOS>ATOM
      1 C10        -14.6300   -21.3340     4.4370 c6         1 KYF      -0.104900
      2 N12        -15.9470   -17.9970     0.1020 ns         1 KYF      -0.549900
      3 C13        -17.1830   -17.2800    -0.2000 c3         1 KYF       0.126100
      4 C15        -17.0080   -15.7770     0.0010 c3         1 KYF      -0.099600
      5 C17        -19.2990   -17.1400     1.2600 cc         1 KYF      -0.178400
      6 C21        -19.6600   -20.9280     1.9320 ca         1 KYF      -0.149500
      7 C22        -19.0400   -21.9640     1.2290 ca         1 KYF      -0.075000
      8 C24        -20.1270   -23.5670     2.6110 ca         1 KYF       0.148900
      9 C26        -20.7620   -22.5690     3.3260 ca         1 KYF      -0.176000
     10 C02        -15.5370   -18.2320     1.3680 c          1 KYF       0.760100
     11 C04        -14.1820   -19.7050     2.6510 c6         1 KYF       0.141100
     12 C05        -12.8580   -20.4730     2.4410 c6         1 KYF       0.145800
     13 C08        -15.4500   -21.8030     2.1400 c6         1 KYF      -0.104900
     14 C09        -15.2180   -20.6990     3.1740 c6         1 KYF      -0.092700
     15 C11        -13.3860   -22.1580     4.0280 c6         1 KYF       0.144300
     16 C14        -17.5020   -17.5600    -1.6720 c3         1 KYF      -0.099600
     17 C16        -18.3080   -17.8390     0.6460 cd         1 KYF       0.343600
     18 C19        -19.3710   -19.5430     1.5670 cc         1 KYF       0.495900
     19 C23        -19.2690   -23.2860     1.5640 ca         1 KYF      -0.176000
     20 C27        -20.5200   -21.2490     2.9820 ca         1 KYF      -0.075000
     21 F25        -20.3500   -24.8450     2.9410 f          1 KYF      -0.138900
     22 N06        -13.0200   -21.9030     2.6380 n3         1 KYF      -0.677600
     23 N20        -18.3740   -19.1890     0.8200 nd         1 KYF      -0.655000
     24 O01        -15.9630   -17.6720     2.3560 o          1 KYF      -0.589000
     25 O03        -14.5750   -19.1620     1.3840 os         1 KYF      -0.441900
     26 S18        -20.3430   -18.2110     2.0950 ss         1 KYF      -0.162300
     27 H1         -14.3690   -20.5580     5.1620 hc         1 KYF       0.049200
     28 H2         -15.3820   -21.9670     4.9130 hc         1 KYF       0.049200
     29 H3         -15.6140   -18.6360    -0.6040 hn         1 KYF       0.322500
     30 H4         -16.7910   -15.5280     1.0380 hc         1 KYF       0.049533
     31 H5         -16.1860   -15.4200    -0.6190 hc         1 KYF       0.049533
     32 H6         -17.9070   -15.2390    -0.3000 hc         1 KYF       0.049533
     33 H7         -19.4660   -16.0750     1.2840 h4         1 KYF       0.182000
     34 H8         -18.3730   -21.7320     0.4100 ha         1 KYF       0.147000
     35 H9         -21.4250   -22.8140     4.1450 ha         1 KYF       0.153000
     36 H10        -14.0460   -18.8900     3.3670 h1         1 KYF       0.070700
     37 H11        -12.4740   -20.2880     1.4350 h1         1 KYF       0.066700
     38 H12        -12.1010   -20.1110     3.1400 h1         1 KYF       0.066700
     39 H13        -14.0920   -23.4910     1.8220 h1         1 KYF       0.053700
     40 H14        -13.8080   -22.1460     0.7330 h1         1 KYF       0.053700
     41 H15        -15.9740   -21.4240     1.2620 hc         1 KYF       0.049200
     42 H16        -16.1000   -22.5640     2.5790 hc         1 KYF       0.049200
     43 H17        -16.1520   -20.1890     3.4130 hc         1 KYF       0.079700
     44 H18        -13.5730   -23.2280     4.1370 h1         1 KYF       0.053700
     45 H19        -12.5320   -21.9200     4.6670 h1         1 KYF       0.053700
     46 H20        -18.4110   -17.0370    -1.9640 hc         1 KYF       0.049533
     47 H21        -16.6900   -17.2120    -2.3130 hc         1 KYF       0.049533
     48 H22        -17.6510   -18.6260    -1.8480 hc         1 KYF       0.049533
     49 H23        -18.7900   -24.0870     1.0170 ha         1 KYF       0.153000
     50 H24        -21.0050   -20.4700     3.5570 ha         1 KYF       0.147000
     51 C07        -14.0750   -22.4010     1.7610 c6         1 KYF       0.144300
@<TRIPOS>BOND
     1     1    14 1   
     2     1    15 1   
     3     1    27 1   
     4     1    28 1   
     5     2     3 1   
     6     2    10 1   
     7     2    29 1   
     8     3     4 1   
     9     3    16 1   
    10     3    17 1   
    11     4    30 1   
    12     4    31 1   
    13     4    32 1   
    14     5    17 2   
    15     5    26 1   
    16     5    33 1   
    17     6     7 ar  
    18     6    18 1   
    19     6    20 ar  
    20     7    19 ar  
    21     7    34 1   
    22     8     9 ar  
    23     8    19 ar  
    24     8    21 1   
    25     9    20 ar  
    26     9    35 1   
    27    10    24 2   
    28    10    25 1   
    29    11    12 1   
    30    11    14 1   
    31    11    25 1   
    32    11    36 1   
    33    12    22 1   
    34    12    37 1   
    35    12    38 1   
    36    13    14 1   
    37    13    41 1   
    38    13    42 1   
    39    13    51 1   
    40    14    43 1   
    41    15    22 1   
    42    15    44 1   
    43    15    45 1   
    44    16    46 1   
    45    16    47 1   
    46    16    48 1   
    47    17    23 1   
    48    18    23 2   
    49    18    26 1   
    50    19    49 1   
    51    20    50 1   
    52    22    51 1   
    53    39    51 1   
    54    40    51 1   
@<TRIPOS>SUBSTRUCTURE
     1 KYF         1 TEMP              0 ****  ****    0 ROOT
