@<TRIPOS>MOLECULE
KYI
   32    34     1     0     0
SMALL
abcg2


@<TRIPOS>ATOM
      1 C10          1.2230    -7.5380    17.9500 cp         1 KYI      -0.002000
      2 C13          2.2740    -7.7270    14.3250 ca         1 KYI      -0.112500
      3 C15          4.0020    -8.6960    15.6790 ca         1 KYI      -0.112500
      4 C17          1.8290    -6.8320    18.9880 ca         1 KYI      -0.102000
      5 C20         -0.8070    -7.5990    19.2530 ca         1 KYI      -0.103000
      6 C01         -0.8030    -8.7220    17.0490 cc         1 KYI      -0.210400
      7 C02         -0.3090   -10.0410    16.6880 c          1 KYI       0.595200
      8 O03          0.6350   -10.6020    17.2060 o          1 KYI      -0.507000
      9 N04         -1.0240   -10.6640    15.6760 ns         1 KYI      -0.470500
     10 C05         -2.1520   -10.2100    15.0400 c          1 KYI       0.616000
     11 O06         -2.7220   -10.8310    14.1690 o          1 KYI      -0.551000
     12 N07         -2.5750    -8.9870    15.4900 ns         1 KYI      -0.518600
     13 C08         -1.9230    -8.2750    16.4460 cd         1 KYI      -0.000400
     14 C09         -0.1150    -7.9380    18.0930 ca         1 KYI      -0.017800
     15 C11          2.0030    -7.8260    16.7250 cp         1 KYI      -0.036000
     16 C12          1.5260    -7.4670    15.4640 ca         1 KYI      -0.092000
     17 C14          3.5130    -8.3470    14.4280 ca         1 KYI      -0.106000
     18 C16          3.2530    -8.4350    16.8180 ca         1 KYI      -0.092000
     19 C18          1.1300    -6.5020    20.1400 ca         1 KYI      -0.103000
     20 C19         -0.1980    -6.8790    20.2700 ca         1 KYI      -0.110000
     21 H2           4.9680    -9.1770    15.7700 ha         1 KYI       0.112500
     22 H3           2.8590    -6.5150    18.8790 ha         1 KYI       0.118000
     23 H4          -1.8350    -7.9220    19.3670 ha         1 KYI       0.110000
     24 H6          -0.6990   -11.5790    15.3910 hn         1 KYI       0.344500
     25 H7          -2.3550    -7.3120    16.6790 h4         1 KYI       0.209000
     26 H8           0.5720    -6.9640    15.3730 ha         1 KYI       0.113500
     27 H9           4.0950    -8.5520    13.5380 ha         1 KYI       0.112000
     28 H10          3.6370    -8.7240    17.7890 ha         1 KYI       0.113500
     29 H11          1.6210    -5.9450    20.9270 ha         1 KYI       0.115000
     30 H12         -0.7550    -6.6250    21.1630 ha         1 KYI       0.115000
     31 H5          -3.4030    -8.6010    15.0600 hn         1 KYI       0.462000
     32 H1           1.8900    -7.4390    13.3550 ha         1 KYI       0.112500
@<TRIPOS>BOND
     1     1     4 ar  
     2     1    14 ar  
     3     1    15 1   
     4     2    16 ar  
     5     2    17 ar  
     6     2    32 1   
     7     3    17 ar  
     8     3    18 ar  
     9     3    21 1   
    10     4    19 ar  
    11     4    22 1   
    12     5    14 ar  
    13     5    20 ar  
    14     5    23 1   
    15     6     7 1   
    16     6    13 2   
    17     6    14 1   
    18     7     8 2   
    19     7     9 1   
    20     9    10 1   
    21     9    24 1   
    22    10    11 2   
    23    10    12 1   
    24    12    13 1   
    25    12    31 1   
    26    13    25 1   
    27    15    16 ar  
    28    15    18 ar  
    29    16    26 1   
    30    17    27 1   
    31    18    28 1   
    32    19    20 ar  
    33    19    29 1   
    34    20    30 1   
@<TRIPOS>SUBSTRUCTURE
     1 KYI         1 TEMP              0 ****  ****    0 ROOT
