@<TRIPOS>MOLECULE
KYI
   32    34     1     0     0
SMALL
No Charge or Current Charge


@<TRIPOS>ATOM
      1 C10          1.2310    -7.5310    17.9460 cp         1 KYI      -0.002000
      2 C13          2.2900    -7.8200    14.2720 ca         1 KYI      -0.112500
      3 C15          4.1120    -8.6130    15.6710 ca         1 KYI      -0.112500
      4 C17          1.8200    -6.7990    19.0070 ca         1 KYI      -0.102000
      5 C20         -0.8330    -7.6540    19.2600 ca         1 KYI      -0.103000
      6 C01         -0.8040    -8.7730    17.0740 cc         1 KYI      -0.210400
      7 C02         -0.3590   -10.1260    16.6690 c          1 KYI       0.595200
      8 O03          0.5910   -10.7230    17.1510 o          1 KYI      -0.507000
      9 N04         -1.1220   -10.6880    15.6880 ns         1 KYI      -0.470500
     10 C05         -2.2090   -10.1620    15.0710 c          1 KYI       0.616000
     11 O06         -2.8240   -10.7490    14.2030 o          1 KYI      -0.551000
     12 N07         -2.5610    -8.9170    15.5080 ns         1 KYI      -0.518600
     13 C08         -1.9060    -8.1890    16.4880 cd         1 KYI      -0.000400
     14 C09         -0.1180    -7.9700    18.0870 ca         1 KYI      -0.017800
     15 C11          2.0360    -7.8160    16.7160 cp         1 KYI      -0.036000
     16 C12          1.5260    -7.5510    15.4200 ca         1 KYI      -0.092000
     17 C14          3.5830    -8.3530    14.3970 ca         1 KYI      -0.106000
     18 C16          3.3470    -8.3440    16.8190 ca         1 KYI      -0.092000
     19 C18          1.0960    -6.4930    20.1700 ca         1 KYI      -0.103000
     20 C19         -0.2330    -6.9190    20.2950 ca         1 KYI      -0.110000
     21 H2           5.1140    -9.0250    15.7710 ha         1 KYI       0.112500
     22 H3           2.8470    -6.4540    18.9170 ha         1 KYI       0.118000
     23 H4          -1.8610    -7.9920    19.3760 ha         1 KYI       0.110000
     24 H6          -0.8460   -11.6080    15.3870 hn         1 KYI       0.344500
     25 H7          -2.3060    -7.2020    16.7170 h4         1 KYI       0.209000
     26 H8           0.5330    -7.1240    15.3070 ha         1 KYI       0.113500
     27 H9           4.1750    -8.5620    13.5080 ha         1 KYI       0.112000
     28 H10          3.7660    -8.5570    17.8000 ha         1 KYI       0.113500
     29 H11          1.5650    -5.9260    20.9710 ha         1 KYI       0.115000
     30 H12         -0.7970    -6.6860    21.1950 ha         1 KYI       0.115000
     31 H5          -3.3790    -8.5380    15.0380 hn         1 KYI       0.462000
     32 H1           1.8810    -7.6110    13.2860 ha         1 KYI       0.112500
@<TRIPOS>BOND
     1     1     4 ar  
     2     1    14 ar  
     3     1    15 1   
     4     2    16 ar  
     5     2    17 ar  
     6     2    32 1   
     7     3    17 ar  
     8     3    18 ar  
     9     3    21 1   
    10     4    19 ar  
    11     4    22 1   
    12     5    14 ar  
    13     5    20 ar  
    14     5    23 1   
    15     6     7 1   
    16     6    13 2   
    17     6    14 1   
    18     7     8 2   
    19     7     9 1   
    20     9    10 1   
    21     9    24 1   
    22    10    11 2   
    23    10    12 1   
    24    12    13 1   
    25    12    31 1   
    26    13    25 1   
    27    15    16 ar  
    28    15    18 ar  
    29    16    26 1   
    30    17    27 1   
    31    18    28 1   
    32    19    20 ar  
    33    19    29 1   
    34    20    30 1   
@<TRIPOS>SUBSTRUCTURE
     1 KYI         1 TEMP              0 ****  ****    0 ROOT
