@<TRIPOS>MOLECULE
KYJ
   54    58     1     0     0
SMALL
No Charge or Current Charge


@<TRIPOS>ATOM
      1 N           -6.9190    -4.0290    -0.3200 nt         1 KYJ      -0.606000
      2 C           -6.2110    -2.8840    -0.2060 c          1 KYJ       0.628700
      3 O           -4.9990    -2.9610    -0.1030 o          1 KYJ      -0.584100
      4 C1          -6.9720    -1.5770    -0.2130 ca         1 KYJ      -0.183600
      5 C10         -1.8250    -0.0650     0.3060 ca         1 KYJ      -0.091000
      6 C11         -0.4910    -0.4960     0.4040 ca         1 KYJ      -0.082000
      7 C12          0.5670     0.4300     0.5390 ca         1 KYJ      -0.138600
      8 C13          1.9940    -0.0750     0.6410 c          1 KYJ       0.609700
      9 C2          -8.3890    -1.5360    -0.3360 ca         1 KYJ      -0.030000
     10 C3          -9.0880    -0.3070    -0.3410 ca         1 KYJ      -0.167000
     11 C4          -8.3970     0.9120    -0.2250 ca         1 KYJ       0.021000
     12 C5          -7.0060     0.8510    -0.1060 ca         1 KYJ      -0.272600
     13 C6          -6.0360     1.9280     0.0280 c          1 KYJ       0.582900
     14 C7          -4.7550     1.1970     0.1070 cc         1 KYJ      -0.056100
     15 C8          -3.5330     1.8050     0.2420 cf         1 KYJ      -0.092200
     16 C9          -2.1420     1.3080     0.3410 ca         1 KYJ      -0.049800
     17 N1           2.9810     0.8790     0.7780 ns         1 KYJ      -0.509900
     18 O1          -6.2580     3.1320     0.0630 o          1 KYJ      -0.492100
     19 O2           2.2670    -1.2670     0.6070 o          1 KYJ      -0.596100
     20 C14          4.4170     0.5910     0.8650 c3         1 KYJ       0.116000
     21 C15          5.0340     0.2980    -0.5150 c3         1 KYJ      -0.116700
     22 C16          6.5120     0.0480    -0.4360 cc         1 KYJ       0.421800
     23 N3           7.4790     1.0270    -0.6490 na         1 KYJ      -0.316600
     24 C22          8.6900     0.4300    -0.4820 ca         1 KYJ      -0.078200
     25 C21          9.9800     0.9620    -0.5820 ca         1 KYJ      -0.116000
     26 C20         11.0630     0.0870    -0.3510 ca         1 KYJ      -0.094000
     27 C19         10.8250    -1.2720    -0.0320 ca         1 KYJ      -0.135000
     28 C18          9.5030    -1.7660     0.0580 ca         1 KYJ      -0.049000
     29 C17          8.4440    -0.8770    -0.1760 ca         1 KYJ       0.071400
     30 N2           7.0770    -1.1390    -0.1410 nd         1 KYJ      -0.581100
     31 C23          0.2460     1.8080     0.5740 ca         1 KYJ      -0.082000
     32 C24         -1.0900     2.2360     0.4760 ca         1 KYJ      -0.091000
     33 O3          -4.9320    -0.1750     0.0290 os         1 KYJ      -0.177200
     34 C25         -6.3020    -0.3390    -0.0980 ca         1 KYJ       0.195100
     35 H1          -6.4270    -4.9100    -0.3170 hn         1 KYJ       0.316500
     36 H2          -7.9220    -4.0030    -0.4060 hn         1 KYJ       0.316500
     37 H3          -2.6020    -0.8150     0.2040 ha         1 KYJ       0.132500
     38 H4          -0.2820    -1.5640     0.3730 ha         1 KYJ       0.125500
     39 H5          -8.9700    -2.4500    -0.4280 ha         1 KYJ       0.118000
     40 H6         -10.1720    -0.3030    -0.4360 ha         1 KYJ       0.126000
     41 H7          -8.9270     1.8640    -0.2280 ha         1 KYJ       0.135000
     42 H8          -3.6090     2.8940     0.2850 ha         1 KYJ       0.203000
     43 H9           2.6830     1.8450     0.8080 hn         1 KYJ       0.316500
     44 H10          4.9220     1.4570     1.3150 h1         1 KYJ       0.072700
     45 H11          4.5750    -0.2690     1.5310 h1         1 KYJ       0.072700
     46 H12          4.5410    -0.5750    -0.9580 hc         1 KYJ       0.062200
     47 H13          4.8380     1.1420    -1.1850 hc         1 KYJ       0.062200
     48 H14          7.3010     1.9950    -0.8840 hn         1 KYJ       0.355000
     49 H15         10.1450     2.0090    -0.8270 ha         1 KYJ       0.116000
     50 H16         12.0830     0.4580    -0.4180 ha         1 KYJ       0.112000
     51 H17         11.6640    -1.9420     0.1450 ha         1 KYJ       0.114000
     52 H18          9.3100    -2.8080     0.3030 ha         1 KYJ       0.128000
     53 H20          1.0180     2.5670     0.6750 ha         1 KYJ       0.125500
     54 H21         -1.3050     3.3020     0.5060 ha         1 KYJ       0.132500
@<TRIPOS>BOND
     1     1     2 1   
     2     1    35 1   
     3     1    36 1   
     4     2     3 2   
     5     2     4 1   
     6     4     9 ar  
     7     4    34 ar  
     8     5     6 ar  
     9     5    16 ar  
    10     5    37 1   
    11     6     7 ar  
    12     6    38 1   
    13     7     8 1   
    14     7    31 ar  
    15     8    17 1   
    16     8    19 2   
    17     9    10 ar  
    18     9    39 1   
    19    10    11 ar  
    20    10    40 1   
    21    11    12 ar  
    22    11    41 1   
    23    12    13 1   
    24    12    34 ar  
    25    13    14 1   
    26    13    18 2   
    27    14    15 2   
    28    14    33 1   
    29    15    16 1   
    30    15    42 1   
    31    16    32 ar  
    32    17    20 1   
    33    17    43 1   
    34    20    21 1   
    35    20    44 1   
    36    20    45 1   
    37    21    22 1   
    38    21    46 1   
    39    21    47 1   
    40    22    23 1   
    41    22    30 2   
    42    23    24 1   
    43    23    48 1   
    44    24    25 ar  
    45    24    29 ar  
    46    25    26 ar  
    47    25    49 1   
    48    26    27 ar  
    49    26    50 1   
    50    27    28 ar  
    51    27    51 1   
    52    28    29 ar  
    53    28    52 1   
    54    29    30 1   
    55    31    32 ar  
    56    31    53 1   
    57    32    54 1   
    58    33    34 1   
@<TRIPOS>SUBSTRUCTURE
     1 KYJ         1 TEMP              0 ****  ****    0 ROOT
