@<TRIPOS>MOLECULE
KYJ
   54    58     1     0     0
SMALL
abcg2


@<TRIPOS>ATOM
      1 N           -6.3510    -3.7550    -1.0830 nt         1 KYJ      -0.606000
      2 C           -5.8840    -2.7850    -0.2850 c          1 KYJ       0.628700
      3 O           -4.8510    -2.8790     0.3590 o          1 KYJ      -0.584100
      4 C1          -6.7300    -1.5550    -0.2140 ca         1 KYJ      -0.183600
      5 C10         -1.8620    -0.0320     0.3600 ca         1 KYJ      -0.091000
      6 C11         -0.5510    -0.4700     0.3730 ca         1 KYJ      -0.082000
      7 C12          0.5090     0.4300     0.4670 ca         1 KYJ      -0.138600
      8 C13          1.9020    -0.1160     0.4560 c          1 KYJ       0.609700
      9 C2          -8.1220    -1.5850    -0.3030 ca         1 KYJ      -0.030000
     10 C3          -8.9090    -0.4390    -0.1980 ca         1 KYJ      -0.167000
     11 C4          -8.3200     0.7990    -0.0070 ca         1 KYJ       0.021000
     12 C5          -6.9360     0.8510     0.0850 ca         1 KYJ      -0.272600
     13 C6          -6.0060     1.9620     0.2640 c          1 KYJ       0.582900
     14 C7          -4.6760     1.2980     0.2640 cc         1 KYJ      -0.056100
     15 C8          -3.4910     1.9010     0.4010 cf         1 KYJ      -0.092200
     16 C9          -2.1520     1.3390     0.4200 ca         1 KYJ      -0.049800
     17 N1           2.8440     0.6430     1.0350 ns         1 KYJ      -0.509900
     18 O1          -6.2290     3.1470     0.3850 o          1 KYJ      -0.492100
     19 O2           2.1430    -1.2040    -0.0500 o          1 KYJ      -0.596100
     20 C14          4.2420     0.2740     1.0580 c3         1 KYJ       0.116000
     21 C15          4.9460     0.6300    -0.2470 c3         1 KYJ      -0.116700
     22 C16          6.3940     0.2860    -0.2190 cc         1 KYJ       0.421800
     23 N3           7.2300     0.6240    -1.2360 na         1 KYJ      -0.316600
     24 C22          8.4800     0.1670    -0.9130 ca         1 KYJ      -0.078200
     25 C21          9.7070     0.2280    -1.5630 ca         1 KYJ      -0.116000
     26 C20         10.7830    -0.3550    -0.9160 ca         1 KYJ      -0.094000
     27 C19         10.6390    -0.9760     0.3340 ca         1 KYJ      -0.135000
     28 C18          9.4130    -1.0310     0.9740 ca         1 KYJ      -0.049000
     29 C17          8.3170    -0.4490     0.3390 ca         1 KYJ       0.071400
     30 N2           7.0040    -0.3550     0.7400 nd         1 KYJ      -0.581100
     31 C23          0.2270     1.7930     0.5270 ca         1 KYJ      -0.082000
     32 C24         -1.0820     2.2360     0.5030 ca         1 KYJ      -0.091000
     33 O3          -4.8440    -0.0490     0.1020 os         1 KYJ      -0.177200
     34 C25         -6.1690    -0.3020    -0.0020 ca         1 KYJ       0.195100
     35 H1          -5.8410    -4.6190    -1.1710 hn         1 KYJ       0.316500
     36 H2          -7.1310    -3.6180    -1.7030 hn         1 KYJ       0.316500
     37 H3          -2.6480    -0.7690     0.3050 ha         1 KYJ       0.132500
     38 H4          -0.3510    -1.5310     0.3180 ha         1 KYJ       0.125500
     39 H5          -8.6220    -2.5360    -0.4420 ha         1 KYJ       0.118000
     40 H6          -9.9840    -0.5270    -0.2650 ha         1 KYJ       0.126000
     41 H7          -8.9170     1.6980     0.0680 ha         1 KYJ       0.135000
     42 H8          -3.5550     2.9790     0.5070 ha         1 KYJ       0.203000
     43 H9           2.5850     1.5010     1.4910 hn         1 KYJ       0.316500
     44 H10          4.7050     0.7990     1.8910 h1         1 KYJ       0.072700
     45 H11          4.3360    -0.7920     1.2600 h1         1 KYJ       0.072700
     46 H12          4.4690     0.1070    -1.0810 hc         1 KYJ       0.062200
     47 H13          4.8320     1.6990    -0.4490 hc         1 KYJ       0.062200
     48 H14          6.9710     1.1190    -2.0750 hn         1 KYJ       0.355000
     49 H15          9.8210     0.7070    -2.5270 ha         1 KYJ       0.116000
     50 H16         11.7590    -0.3290    -1.3830 ha         1 KYJ       0.112000
     51 H17         11.5070    -1.4200     0.8040 ha         1 KYJ       0.114000
     52 H18          9.3040    -1.5120     1.9380 ha         1 KYJ       0.128000
     53 H20          1.0190     2.5300     0.5670 ha         1 KYJ       0.125500
     54 H21         -1.2790     3.3000     0.5400 ha         1 KYJ       0.132500
@<TRIPOS>BOND
     1     1     2 1   
     2     1    35 1   
     3     1    36 1   
     4     2     3 2   
     5     2     4 1   
     6     4     9 ar  
     7     4    34 ar  
     8     5     6 ar  
     9     5    16 ar  
    10     5    37 1   
    11     6     7 ar  
    12     6    38 1   
    13     7     8 1   
    14     7    31 ar  
    15     8    17 1   
    16     8    19 2   
    17     9    10 ar  
    18     9    39 1   
    19    10    11 ar  
    20    10    40 1   
    21    11    12 ar  
    22    11    41 1   
    23    12    13 1   
    24    12    34 ar  
    25    13    14 1   
    26    13    18 2   
    27    14    15 2   
    28    14    33 1   
    29    15    16 1   
    30    15    42 1   
    31    16    32 ar  
    32    17    20 1   
    33    17    43 1   
    34    20    21 1   
    35    20    44 1   
    36    20    45 1   
    37    21    22 1   
    38    21    46 1   
    39    21    47 1   
    40    22    23 1   
    41    22    30 2   
    42    23    24 1   
    43    23    48 1   
    44    24    25 ar  
    45    24    29 ar  
    46    25    26 ar  
    47    25    49 1   
    48    26    27 ar  
    49    26    50 1   
    50    27    28 ar  
    51    27    51 1   
    52    28    29 ar  
    53    28    52 1   
    54    29    30 1   
    55    31    32 ar  
    56    31    53 1   
    57    32    54 1   
    58    33    34 1   
@<TRIPOS>SUBSTRUCTURE
     1 KYJ         1 TEMP              0 ****  ****    0 ROOT
