@<TRIPOS>MOLECULE
KYK
   54    57     1     0     0
SMALL
No Charge or Current Charge


@<TRIPOS>ATOM
      1 N1         -12.4800    23.4750   -36.8020 nb         1 KYK      -0.343000
      2 N3         -14.3440    21.9370   -36.6990 nb         1 KYK      -0.210000
      3 C4         -13.9110    21.5240   -35.4920 ca         1 KYK       0.060500
      4 C5         -12.7860    22.0430   -34.8960 ca         1 KYK      -0.047600
      5 C6         -12.0700    23.0600   -35.5900 ca         1 KYK       0.408900
      6 C8         -13.5310    20.5330   -33.5270 cc         1 KYK       0.505700
      7 C22        -13.1440    27.2630   -32.3770 ca         1 KYK      -0.108000
      8 C24        -11.1800    26.4990   -33.5960 ca         1 KYK      -0.090000
      9 C26        -12.6370    24.8850   -32.5050 ca         1 KYK      -0.090000
     10 O1B        -14.4060    17.8310   -28.1250 o          1 KYK      -0.952500
     11 O2B        -14.5580    16.5520   -30.1700 o          1 KYK      -0.952500
     12 O3B        -14.2390    18.9620   -30.3100 o          1 KYK      -0.952500
     13 PA         -17.1340    19.5910   -29.5860 p5         1 KYK       1.441400
     14 O1A        -16.3310    20.5020   -28.7140 o          1 KYK      -0.880000
     15 O2A        -18.5790    19.6440   -29.2030 o          1 KYK      -0.880000
     16 C3A        -16.6440    17.8810   -29.5130 c3         1 KYK      -0.770400
     17 C9         -17.9170    19.3380   -32.0980 c3         1 KYK       0.218600
     18 C7         -17.1800    18.9270   -33.4020 c5         1 KYK       0.135300
     19 O4         -16.6250    20.0890   -34.0600 os         1 KYK      -0.368000
     20 C3         -15.9560    17.9790   -33.2290 c5         1 KYK       0.083300
     21 O3         -16.2920    16.6060   -32.9520 oh         1 KYK      -0.755000
     22 C2         -15.2920    18.1350   -34.6230 c5         1 KYK       0.121300
     23 O2         -15.9760    17.2770   -35.5470 oh         1 KYK      -0.720000
     24 C1         -15.5170    19.6710   -34.8910 c5         1 KYK       0.318300
     25 N9         -14.3870    20.5700   -34.6380 na         1 KYK      -0.308300
     26 N7         -12.5280    21.4280   -33.6640 nd         1 KYK      -0.583100
     27 N6         -10.9010    23.6740   -35.1510 nu         1 KYK      -0.938100
     28 C10        -13.6010    22.8970   -37.2950 ca         1 KYK       0.113900
     29 C23        -12.0050    27.5460   -33.1500 ca         1 KYK      -0.103000
     30 C25        -11.4890    25.1610   -33.2760 ca         1 KYK      -0.093300
     31 C27        -13.4610    25.9320   -32.0570 ca         1 KYK      -0.103000
     32 H8         -13.6780    19.8630   -32.6860 h5         1 KYK       0.216800
     33 H3         -10.6800    23.1600   -33.0950 h1         1 KYK       0.054700
     34 H1          -9.5420    24.3650   -33.6930 h1         1 KYK       0.054700
     35 H23        -10.3000    26.7270   -34.1940 ha         1 KYK       0.108500
     36 H25        -12.8910    23.8590   -32.2520 ha         1 KYK       0.108500
     37 H3A2       -17.0120    17.4370   -28.5850 hc         1 KYK       0.024200
     38 H3A1       -17.0490    17.3140   -30.3520 hc         1 KYK       0.024200
     39 H5'2       -18.7030    20.0620   -32.3470 h1         1 KYK       0.035200
     40 H5'1       -18.4120    18.4490   -31.6850 h1         1 KYK       0.035200
     41 H4         -17.9210    18.4800   -34.0790 h1         1 KYK       0.049700
     42 H6         -15.2890    18.3670   -32.4550 h1         1 KYK       0.068700
     43 HO3        -15.9310    16.4170   -32.0460 ho         1 KYK       0.522000
     44 H2         -14.2230    17.8820   -34.5910 h1         1 KYK       0.049700
     45 HO2        -16.3530    16.5850   -34.9450 ho         1 KYK       0.506000
     46 H7         -15.7790    19.8140   -35.9460 h2         1 KYK       0.086700
     47 HN61       -10.5180    24.3100   -35.8480 hn         1 KYK       0.472000
     48 H9         -13.9350    23.2350   -38.2730 h5         1 KYK       0.006100
     49 H22        -11.7610    28.5750   -33.4020 ha         1 KYK       0.105500
     50 H26        -14.3450    25.7120   -31.4630 ha         1 KYK       0.105500
     51 O5         -16.9840    19.9140   -31.1620 os         1 KYK      -0.559400
     52 C21        -10.5860    24.0300   -33.7590 c3         1 KYK       0.293100
     53 H21        -13.7800    28.0730   -32.0290 ha         1 KYK       0.100000
     54 PB         -14.8750    17.8630   -29.5380 p5         1 KYK       1.370500
@<TRIPOS>BOND
     1     1     5 ar  
     2     1    28 ar  
     3     2     3 ar  
     4     2    28 ar  
     5     3     4 ar  
     6     3    25 1   
     7     4     5 ar  
     8     4    26 1   
     9     5    27 1   
    10     6    25 1   
    11     6    26 2   
    12     6    32 1   
    13     7    29 ar  
    14     7    31 ar  
    15     7    53 1   
    16     8    29 ar  
    17     8    30 ar  
    18     8    35 1   
    19     9    30 ar  
    20     9    31 ar  
    21     9    36 1   
    22    10    54 1   
    23    11    54 1   
    24    12    54 1   
    25    13    14 1   
    26    13    15 1   
    27    13    16 1   
    28    13    51 1   
    29    16    37 1   
    30    16    38 1   
    31    16    54 1   
    32    17    18 1   
    33    17    39 1   
    34    17    40 1   
    35    17    51 1   
    36    18    19 1   
    37    18    20 1   
    38    18    41 1   
    39    19    24 1   
    40    20    21 1   
    41    20    22 1   
    42    20    42 1   
    43    21    43 1   
    44    22    23 1   
    45    22    24 1   
    46    22    44 1   
    47    23    45 1   
    48    24    25 1   
    49    24    46 1   
    50    27    47 1   
    51    27    52 1   
    52    28    48 1   
    53    29    49 1   
    54    30    52 1   
    55    31    50 1   
    56    33    52 1   
    57    34    52 1   
@<TRIPOS>SUBSTRUCTURE
     1 KYK         1 TEMP              0 ****  ****    0 ROOT
