@<TRIPOS>MOLECULE
KYK
   54    57     1     0     0
SMALL
abcg2


@<TRIPOS>ATOM
      1 N1         -12.2110    22.8160   -36.9490 nb         1 KYK      -0.343000
      2 N3         -14.2960    21.6660   -36.8700 nb         1 KYK      -0.210000
      3 C4         -14.0730    21.5640   -35.5610 ca         1 KYK       0.060500
      4 C5         -12.9710    22.0410   -34.8580 ca         1 KYK      -0.047600
      5 C6         -11.9950    22.7020   -35.6300 ca         1 KYK       0.408900
      6 C8         -14.2340    21.1080   -33.4220 cc         1 KYK       0.505700
      7 C22        -12.5200    26.1850   -31.3300 ca         1 KYK      -0.108000
      8 C24        -11.9080    25.3650   -33.5130 ca         1 KYK      -0.090000
      9 C26        -11.1730    24.2040   -31.5510 ca         1 KYK      -0.090000
     10 O1B        -16.5200    21.9190   -29.5070 o          1 KYK      -0.952500
     11 O2B        -14.5750    21.0610   -28.0620 o          1 KYK      -0.952500
     12 O3B        -14.6690    20.4570   -30.5480 o          1 KYK      -0.952500
     13 PA         -17.9420    18.7340   -29.6620 p5         1 KYK       1.441400
     14 O1A        -19.0960    19.6080   -29.2430 o          1 KYK      -0.880000
     15 O2A        -18.0880    17.2310   -29.5590 o          1 KYK      -0.880000
     16 C3A        -16.4010    19.2420   -28.8330 c3         1 KYK      -0.770400
     17 C9         -16.7650    18.4070   -32.0230 c3         1 KYK       0.218600
     18 C7         -16.9670    18.7050   -33.4880 c5         1 KYK       0.135300
     19 O4         -16.8320    20.1050   -33.7420 os         1 KYK      -0.368000
     20 C3         -15.9250    18.0490   -34.3980 c5         1 KYK       0.083300
     21 O3         -16.2170    16.7390   -34.7910 oh         1 KYK      -0.755000
     22 C2         -15.9510    18.9770   -35.6080 c5         1 KYK       0.121300
     23 O2         -17.0820    18.7560   -36.4080 oh         1 KYK      -0.720000
     24 C1         -16.1440    20.3340   -34.9290 c5         1 KYK       0.318300
     25 N9         -14.8700    20.9730   -34.6290 na         1 KYK      -0.308300
     26 N7         -13.1000    21.7440   -33.5240 nd         1 KYK      -0.583100
     27 N6         -10.8550    23.2240   -35.1540 nu         1 KYK      -0.938100
     28 C10        -13.3140    22.3060   -37.4810 ca         1 KYK       0.113900
     29 C23        -12.5620    26.2950   -32.7130 ca         1 KYK      -0.103000
     30 C25        -11.2080    24.3090   -32.9400 ca         1 KYK      -0.093300
     31 C27        -11.8190    25.1340   -30.7510 ca         1 KYK      -0.103000
     32 H8         -14.6410    20.7520   -32.4730 h5         1 KYK       0.216800
     33 H3         -10.5760    22.3030   -33.3080 h1         1 KYK       0.054700
     34 H1          -9.4010    23.5130   -33.7510 h1         1 KYK       0.054700
     35 H23        -11.9530    25.4670   -34.5900 ha         1 KYK       0.108500
     36 H25        -10.6420    23.3780   -31.0910 ha         1 KYK       0.108500
     37 H3A2       -16.6710    19.3000   -27.7720 hc         1 KYK       0.024200
     38 H3A1       -15.6880    18.4150   -28.9030 hc         1 KYK       0.024200
     39 H5'2       -16.8650    17.3200   -31.8990 h1         1 KYK       0.035200
     40 H5'1       -15.7510    18.6890   -31.7160 h1         1 KYK       0.035200
     41 H4         -17.9710    18.3820   -33.7920 h1         1 KYK       0.049700
     42 H6         -14.9340    18.1150   -33.9240 h1         1 KYK       0.068700
     43 HO3        -16.1240    16.1520   -34.0340 ho         1 KYK       0.522000
     44 H2         -15.0230    18.9380   -36.1910 h1         1 KYK       0.049700
     45 HO2        -17.1380    17.8140   -36.6020 ho         1 KYK       0.506000
     46 H7         -16.7020    21.0170   -35.5770 h2         1 KYK       0.086700
     47 HN61       -10.2790    23.6990   -35.8310 hn         1 KYK       0.472000
     48 H9         -13.4180    22.4330   -38.5540 h5         1 KYK       0.006100
     49 H22        -13.1070    27.1080   -33.1750 ha         1 KYK       0.105500
     50 H26        -11.7850    25.0320   -29.6730 ha         1 KYK       0.105500
     51 O5         -17.7220    19.1060   -31.2720 os         1 KYK      -0.559400
     52 C21        -10.4680    23.2840   -33.7690 c3         1 KYK       0.293100
     53 H21        -13.0320    26.9080   -30.7090 ha         1 KYK       0.100000
     54 PB         -15.4750    20.8220   -29.2800 p5         1 KYK       1.370500
@<TRIPOS>BOND
     1     1     5 ar  
     2     1    28 ar  
     3     2     3 ar  
     4     2    28 ar  
     5     3     4 ar  
     6     3    25 1   
     7     4     5 ar  
     8     4    26 1   
     9     5    27 1   
    10     6    25 1   
    11     6    26 2   
    12     6    32 1   
    13     7    29 ar  
    14     7    31 ar  
    15     7    53 1   
    16     8    29 ar  
    17     8    30 ar  
    18     8    35 1   
    19     9    30 ar  
    20     9    31 ar  
    21     9    36 1   
    22    10    54 1   
    23    11    54 1   
    24    12    54 1   
    25    13    14 1   
    26    13    15 1   
    27    13    16 1   
    28    13    51 1   
    29    16    37 1   
    30    16    38 1   
    31    16    54 1   
    32    17    18 1   
    33    17    39 1   
    34    17    40 1   
    35    17    51 1   
    36    18    19 1   
    37    18    20 1   
    38    18    41 1   
    39    19    24 1   
    40    20    21 1   
    41    20    22 1   
    42    20    42 1   
    43    21    43 1   
    44    22    23 1   
    45    22    24 1   
    46    22    44 1   
    47    23    45 1   
    48    24    25 1   
    49    24    46 1   
    50    27    47 1   
    51    27    52 1   
    52    28    48 1   
    53    29    49 1   
    54    30    52 1   
    55    31    50 1   
    56    33    52 1   
    57    34    52 1   
@<TRIPOS>SUBSTRUCTURE
     1 KYK         1 TEMP              0 ****  ****    0 ROOT
