@<TRIPOS>MOLECULE
KYL
   93    98     1     0     0
SMALL
abcg2


@<TRIPOS>ATOM
      1 O6           2.2530     1.4780     4.4390 os         1 KYL      -0.326100
      2 C6           4.3630     3.3410     9.9560 ca         1 KYL       0.100100
      3 C5           5.6120     3.7520     9.5370 ca         1 KYL      -0.159000
      4 C4           5.9190     3.9040     8.1790 ca         1 KYL      -0.112300
      5 C3           4.9340     3.6730     7.2320 ca         1 KYL      -0.060300
      6 C2           3.6710     3.2380     7.6530 ca         1 KYL      -0.166000
      7 C1           3.3740     3.0590     8.9910 ca         1 KYL       0.113100
      8 O1           3.9980     3.1690    11.2450 os         1 KYL      -0.323100
      9 C21          6.2320    -1.0990    10.3250 ca         1 KYL       0.124100
     10 C10          4.9460     3.4670    12.2470 c3         1 KYL       0.143900
     11 C11          1.2170     2.1920     8.5500 c3         1 KYL       0.139900
     12 C13          8.3380     3.1750     7.7880 c3         1 KYL      -0.018100
     13 C14          8.4270     2.4490     9.1000 ca         1 KYL      -0.094300
     14 C15          8.9660     3.0530    10.2300 ca         1 KYL      -0.081000
     15 C16          8.9950     2.4040    11.4570 ca         1 KYL      -0.193000
     16 C17          8.4810     1.1150    11.5870 ca         1 KYL       0.131100
     17 C18          7.9720     0.4910    10.4440 ca         1 KYL       0.069100
     18 C19          7.9460     1.1500     9.2290 ca         1 KYL      -0.092000
     19 C22          5.2120    -0.1610    10.3970 ca         1 KYL      -0.156500
     20 C23          3.8990    -0.5550    10.1660 ca         1 KYL      -0.079000
     21 C24          3.5730    -1.8720     9.8690 ca         1 KYL      -0.111300
     22 C25          4.6150    -2.8000     9.8190 ca         1 KYL      -0.079000
     23 C26          5.9300    -2.4260    10.0360 ca         1 KYL      -0.156500
     24 C27          2.1560    -2.3010     9.6040 c3         1 KYL      -0.018100
     25 C28          1.9010    -2.7830     8.1590 c6         1 KYL       0.229800
     26 C29          1.9480    -1.6490     7.1510 ca         1 KYL      -0.100300
     27 C30          0.7870    -1.1440     6.5860 ca         1 KYL      -0.074300
     28 C31         -0.5630    -1.7240     6.9130 c6         1 KYL      -0.064100
     29 C32         -0.5000    -2.6630     8.1130 c6         1 KYL       0.164800
     30 C34          3.1810    -1.1020     6.7770 ca         1 KYL      -0.151000
     31 C35          3.2700    -0.0640     5.8720 ca         1 KYL       0.109100
     32 C36          2.0900     0.4540     5.3010 ca         1 KYL       0.105100
     33 C37          0.8740    -0.0960     5.6610 ca         1 KYL      -0.178000
     34 C39          1.1000     2.0600     3.8700 c3         1 KYL       0.144900
     35 C7           5.1680     3.9610     5.7740 c6         1 KYL      -0.070100
     36 C8           6.6440     4.1850     5.4590 c6         1 KYL       0.165800
     37 C9           7.3140     4.3320     7.7670 c6         1 KYL       0.233800
     38 N1           7.3420     4.9750     6.4600 n3         1 KYL      -0.715600
     39 N2           0.6590    -3.5390     8.0950 n3         1 KYL      -0.714600
     40 H1           6.3800     3.9730    10.2660 ha         1 KYL       0.120000
     41 H2           2.9170     3.0490     6.8990 ha         1 KYL       0.126000
     42 H3           4.4590     3.2830    13.2010 h1         1 KYL       0.038367
     43 H4           5.8340     2.8290    12.1780 h1         1 KYL       0.038367
     44 H5           5.2660     4.5120    12.2100 h1         1 KYL       0.038367
     45 H6           0.3620     1.8580     9.1340 h1         1 KYL       0.041367
     46 H7           0.8900     2.9890     7.8760 h1         1 KYL       0.041367
     47 H8           1.5830     1.3540     7.9500 h1         1 KYL       0.041367
     48 H9           7.5080     6.9270     7.1800 h1         1 KYL       0.032033
     49 H10          6.9490     6.7920     5.5160 h1         1 KYL       0.032033
     50 H11          5.8360     6.4670     6.8510 h1         1 KYL       0.032033
     51 H12          9.3090     3.6080     7.5320 hc         1 KYL       0.055700
     52 H13          8.1000     2.4540     7.0030 hc         1 KYL       0.055700
     53 H14          9.3680     4.0570    10.1640 ha         1 KYL       0.115000
     54 H15          9.4190     2.9180    12.3090 ha         1 KYL       0.119000
     55 H16          7.5400     0.6360     8.3660 ha         1 KYL       0.125000
     56 H17          8.8740     0.2620    14.6890 h1         1 KYL       0.041367
     57 H18         10.0540     1.2190    13.7750 h1         1 KYL       0.041367
     58 H19          8.4650     1.9080    14.1760 h1         1 KYL       0.041367
     59 H20          5.4280     0.8730    10.6270 ha         1 KYL       0.128000
     60 H21          3.1170     0.1920    10.2190 ha         1 KYL       0.120000
     61 H22          4.3990    -3.8390     9.6000 ha         1 KYL       0.120000
     62 H23          6.7240    -3.1620     9.9880 ha         1 KYL       0.128000
     63 H24          1.9030    -3.1370    10.2620 hc         1 KYL       0.057200
     64 H25          1.4760    -1.4840     9.8540 hc         1 KYL       0.057200
     65 H26          2.7050    -3.4870     7.9180 h1         1 KYL       0.062700
     66 H29         -1.2830    -0.9260     7.1080 hc         1 KYL       0.050200
     67 H30         -0.9420    -2.2590     6.0360 hc         1 KYL       0.050200
     68 H31         -0.4810    -2.0790     9.0370 h1         1 KYL       0.053200
     69 H32         -1.4030    -3.2760     8.1580 h1         1 KYL       0.053200
     70 H33         -0.2980    -5.0420     7.0130 h1         1 KYL       0.032700
     71 H34          0.7180    -4.0180     5.9920 h1         1 KYL       0.032700
     72 H35          1.4560    -5.1840     7.0920 h1         1 KYL       0.032700
     73 H36          4.0830    -1.5200     7.2070 ha         1 KYL       0.130000
     74 H37         -0.0460     0.2860     5.2350 ha         1 KYL       0.116000
     75 H40          6.3720     0.8750     5.8250 h1         1 KYL       0.042367
     76 H41          5.4450     0.4580     7.2800 h1         1 KYL       0.042367
     77 H42          5.9080    -0.8090     6.1200 h1         1 KYL       0.042367
     78 H43          1.4460     2.8630     3.2230 h1         1 KYL       0.038700
     79 H44          0.5320     1.3450     3.2690 h1         1 KYL       0.038700
     80 H45          0.4370     2.4830     4.6300 h1         1 KYL       0.038700
     81 H46          4.7780     3.1490     5.1580 hc         1 KYL       0.062200
     82 H47          4.5880     4.8480     5.4970 hc         1 KYL       0.062200
     83 H48          7.1470     3.2200     5.3590 h1         1 KYL       0.051200
     84 H49          6.7490     4.6790     4.4910 h1         1 KYL       0.051200
     85 H50          7.6690     5.0720     8.4920 h1         1 KYL       0.057700
     86 O5           4.4240     0.5080     5.4710 os         1 KYL      -0.326100
     87 C33          0.6340    -4.4740     6.9880 c3         1 KYL       0.154100
     88 O3           7.5450    -0.8050    10.5510 os         1 KYL      -0.236200
     89 C38          5.5880     0.2320     6.2190 c3         1 KYL       0.140900
     90 O4           8.4430     0.4070    12.7290 os         1 KYL      -0.317100
     91 O2           2.1870     2.6380     9.4740 os         1 KYL      -0.325100
     92 C12          6.8740     6.3450     6.5090 c3         1 KYL       0.154100
     93 C20          8.9910     0.9920    13.8930 c3         1 KYL       0.144900
@<TRIPOS>BOND
     1     1    32 1   
     2     1    34 1   
     3     2     3 ar  
     4     2     7 ar  
     5     2     8 1   
     6     3     4 ar  
     7     3    40 1   
     8     4     5 ar  
     9     4    37 1   
    10     5     6 ar  
    11     5    35 1   
    12     6     7 ar  
    13     6    41 1   
    14     7    91 1   
    15     8    10 1   
    16     9    19 ar  
    17     9    23 ar  
    18     9    88 1   
    19    10    42 1   
    20    10    43 1   
    21    10    44 1   
    22    11    45 1   
    23    11    46 1   
    24    11    47 1   
    25    11    91 1   
    26    12    13 1   
    27    12    37 1   
    28    12    51 1   
    29    12    52 1   
    30    13    14 ar  
    31    13    18 ar  
    32    14    15 ar  
    33    14    53 1   
    34    15    16 ar  
    35    15    54 1   
    36    16    17 ar  
    37    16    90 1   
    38    17    18 ar  
    39    17    88 1   
    40    18    55 1   
    41    19    20 ar  
    42    19    59 1   
    43    20    21 ar  
    44    20    60 1   
    45    21    22 ar  
    46    21    24 1   
    47    22    23 ar  
    48    22    61 1   
    49    23    62 1   
    50    24    25 1   
    51    24    63 1   
    52    24    64 1   
    53    25    26 1   
    54    25    39 1   
    55    25    65 1   
    56    26    27 ar  
    57    26    30 ar  
    58    27    28 1   
    59    27    33 ar  
    60    28    29 1   
    61    28    66 1   
    62    28    67 1   
    63    29    39 1   
    64    29    68 1   
    65    29    69 1   
    66    30    31 ar  
    67    30    73 1   
    68    31    32 ar  
    69    31    86 1   
    70    32    33 ar  
    71    33    74 1   
    72    34    78 1   
    73    34    79 1   
    74    34    80 1   
    75    35    36 1   
    76    35    81 1   
    77    35    82 1   
    78    36    38 1   
    79    36    83 1   
    80    36    84 1   
    81    37    38 1   
    82    37    85 1   
    83    38    92 1   
    84    39    87 1   
    85    48    92 1   
    86    49    92 1   
    87    50    92 1   
    88    56    93 1   
    89    57    93 1   
    90    58    93 1   
    91    70    87 1   
    92    71    87 1   
    93    72    87 1   
    94    75    89 1   
    95    76    89 1   
    96    77    89 1   
    97    86    89 1   
    98    90    93 1   
@<TRIPOS>SUBSTRUCTURE
     1 KYL         1 TEMP              0 ****  ****    0 ROOT
