@<TRIPOS>MOLECULE
KYL
   93    98     1     0     0
SMALL
No Charge or Current Charge


@<TRIPOS>ATOM
      1 O6           2.1510     1.5420     4.3870 os         1 KYL      -0.326100
      2 C6           4.3160     3.3390     9.9410 ca         1 KYL       0.100100
      3 C5           5.6060     3.7450     9.5370 ca         1 KYL      -0.159000
      4 C4           5.9200     3.8950     8.1710 ca         1 KYL      -0.112300
      5 C3           4.9190     3.6730     7.1990 ca         1 KYL      -0.060300
      6 C2           3.6370     3.2520     7.5960 ca         1 KYL      -0.166000
      7 C1           3.3300     3.0730     8.9630 ca         1 KYL       0.113100
      8 O1           3.9920     3.1720    11.2790 os         1 KYL      -0.323100
      9 C21          6.2080    -1.1200    10.4540 ca         1 KYL       0.124100
     10 C10          4.9470     3.3700    12.3360 c3         1 KYL       0.143900
     11 C11          1.1020     2.1220     8.4710 c3         1 KYL       0.139900
     12 C13          8.3080     3.0770     7.7740 c3         1 KYL      -0.018100
     13 C14          8.4420     2.4000     9.1360 ca         1 KYL      -0.094300
     14 C15          9.0600     3.0700    10.2090 ca         1 KYL      -0.081000
     15 C16          9.1570     2.4580    11.4710 ca         1 KYL      -0.193000
     16 C17          8.6340     1.1600    11.6750 ca         1 KYL       0.131100
     17 C18          8.0170     0.4880    10.5980 ca         1 KYL       0.069100
     18 C19          7.9340     1.1030     9.3360 ca         1 KYL      -0.092000
     19 C22          5.1860    -0.1530    10.3970 ca         1 KYL      -0.156500
     20 C23          3.8660    -0.5330    10.1050 ca         1 KYL      -0.079000
     21 C24          3.5500    -1.8860     9.8730 ca         1 KYL      -0.111300
     22 C25          4.5740    -2.8530     9.9340 ca         1 KYL      -0.079000
     23 C26          5.8960    -2.4700    10.2250 ca         1 KYL      -0.156500
     24 C27          2.1110    -2.3050     9.5760 c3         1 KYL      -0.018100
     25 C28          1.8780    -2.8310     8.1250 c6         1 KYL       0.229800
     26 C29          1.9300    -1.6650     7.1160 ca         1 KYL      -0.100300
     27 C30          0.7430    -1.1350     6.5610 ca         1 KYL      -0.074300
     28 C31         -0.6240    -1.7310     6.9150 c6         1 KYL      -0.064100
     29 C32         -0.5800    -2.7510     8.0820 c6         1 KYL       0.164800
     30 C34          3.1730    -1.1170     6.7460 ca         1 KYL      -0.151000
     31 C35          3.2430    -0.0420     5.8330 ca         1 KYL       0.109100
     32 C36          2.0560     0.4820     5.2740 ca         1 KYL       0.105100
     33 C37          0.8090    -0.0730     5.6400 ca         1 KYL      -0.178000
     34 C39          0.9950     2.1770     3.8140 c3         1 KYL       0.144900
     35 C7           5.1890     3.9600     5.7170 c6         1 KYL      -0.070100
     36 C8           6.6790     4.2250     5.3830 c6         1 KYL       0.165800
     37 C9           7.3450     4.3100     7.7540 c6         1 KYL       0.233800
     38 N1           7.3670     5.0200     6.4400 n3         1 KYL      -0.715600
     39 N2           0.6210    -3.6290     8.0150 n3         1 KYL      -0.714600
     40 H1           6.3790     3.9450    10.2710 ha         1 KYL       0.120000
     41 H2           2.8870     3.0860     6.8290 ha         1 KYL       0.126000
     42 H3           4.4820     3.1710    13.3100 h1         1 KYL       0.038367
     43 H4           5.8030     2.6920    12.2230 h1         1 KYL       0.038367
     44 H5           5.3150     4.4040    12.3410 h1         1 KYL       0.038367
     45 H6           0.2020     1.8130     9.0160 h1         1 KYL       0.041367
     46 H7           0.8070     2.8690     7.7240 h1         1 KYL       0.041367
     47 H8           1.5060     1.2430     7.9560 h1         1 KYL       0.041367
     48 H9           7.4780     6.9910     7.2440 h1         1 KYL       0.032033
     49 H10          6.9370     6.9130     5.5560 h1         1 KYL       0.032033
     50 H11          5.8280     6.4490     6.8690 h1         1 KYL       0.032033
     51 H12          9.3020     3.4000     7.4430 hc         1 KYL       0.055700
     52 H13          7.9830     2.3360     7.0370 hc         1 KYL       0.055700
     53 H14          9.4620     4.0710    10.0660 ha         1 KYL       0.115000
     54 H15          9.6380     3.0060    12.2760 ha         1 KYL       0.119000
     55 H16          7.4670     0.5680     8.5150 ha         1 KYL       0.125000
     56 H17          9.2370     0.4710    14.9220 h1         1 KYL       0.041367
     57 H18         10.3520     1.3770    13.8770 h1         1 KYL       0.041367
     58 H19          8.7690     2.0730    14.3170 h1         1 KYL       0.041367
     59 H20          5.4080     0.8900    10.5920 ha         1 KYL       0.128000
     60 H21          3.0870     0.2240    10.0700 ha         1 KYL       0.120000
     61 H22          4.3440    -3.9030     9.7650 ha         1 KYL       0.120000
     62 H23          6.6790    -3.2210    10.2800 ha         1 KYL       0.128000
     63 H24          1.8320    -3.0930    10.2870 hc         1 KYL       0.057200
     64 H25          1.4300    -1.4720     9.7820 hc         1 KYL       0.057200
     65 H26          2.7250    -3.4980     7.9040 h1         1 KYL       0.062700
     66 H29         -1.3310    -0.9290     7.1660 hc         1 KYL       0.050200
     67 H30         -1.0330    -2.2250     6.0240 hc         1 KYL       0.050200
     68 H31         -0.5910    -2.1970     9.0310 h1         1 KYL       0.053200
     69 H32         -1.5020    -3.3520     8.0700 h1         1 KYL       0.053200
     70 H33         -0.3130    -5.1270     6.8160 h1         1 KYL       0.032700
     71 H34          0.7000    -3.9840     5.9020 h1         1 KYL       0.032700
     72 H35          1.4560    -5.2440     6.9010 h1         1 KYL       0.032700
     73 H36          4.0760    -1.5400     7.1740 ha         1 KYL       0.130000
     74 H37         -0.1170     0.3080     5.2210 ha         1 KYL       0.116000
     75 H40          6.4880     0.8610     5.7870 h1         1 KYL       0.042367
     76 H41          5.5400     0.5310     7.2540 h1         1 KYL       0.042367
     77 H42          5.9500    -0.7950     6.1300 h1         1 KYL       0.042367
     78 H43          1.3010     2.9980     3.1540 h1         1 KYL       0.038700
     79 H44          0.4110     1.4620     3.2200 h1         1 KYL       0.038700
     80 H45          0.3510     2.5940     4.5990 h1         1 KYL       0.038700
     81 H46          4.8190     3.1370     5.0940 hc         1 KYL       0.062200
     82 H47          4.6010     4.8400     5.4240 hc         1 KYL       0.062200
     83 H48          7.1830     3.2590     5.2420 h1         1 KYL       0.051200
     84 H49          6.7420     4.7400     4.4120 h1         1 KYL       0.051200
     85 H50          7.7260     4.9990     8.5230 h1         1 KYL       0.057700
     86 O5           4.4550     0.5190     5.4690 os         1 KYL      -0.326100
     87 C33          0.6150    -4.5400     6.8450 c3         1 KYL       0.154100
     88 O3           7.5060    -0.7820    10.7760 os         1 KYL      -0.236200
     89 C38          5.6650     0.2620     6.1970 c3         1 KYL       0.140900
     90 O4           8.7010     0.5260    12.9040 os         1 KYL      -0.317100
     91 O2           2.0760     2.6570     9.3820 os         1 KYL      -0.325100
     92 C12          6.8730     6.4150     6.5320 c3         1 KYL       0.154100
     93 C20          9.2940     1.1450    14.0590 c3         1 KYL       0.144900
@<TRIPOS>BOND
     1     1    32 1   
     2     1    34 1   
     3     2     3 ar  
     4     2     7 ar  
     5     2     8 1   
     6     3     4 ar  
     7     3    40 1   
     8     4     5 ar  
     9     4    37 1   
    10     5     6 ar  
    11     5    35 1   
    12     6     7 ar  
    13     6    41 1   
    14     7    91 1   
    15     8    10 1   
    16     9    19 ar  
    17     9    23 ar  
    18     9    88 1   
    19    10    42 1   
    20    10    43 1   
    21    10    44 1   
    22    11    45 1   
    23    11    46 1   
    24    11    47 1   
    25    11    91 1   
    26    12    13 1   
    27    12    37 1   
    28    12    51 1   
    29    12    52 1   
    30    13    14 ar  
    31    13    18 ar  
    32    14    15 ar  
    33    14    53 1   
    34    15    16 ar  
    35    15    54 1   
    36    16    17 ar  
    37    16    90 1   
    38    17    18 ar  
    39    17    88 1   
    40    18    55 1   
    41    19    20 ar  
    42    19    59 1   
    43    20    21 ar  
    44    20    60 1   
    45    21    22 ar  
    46    21    24 1   
    47    22    23 ar  
    48    22    61 1   
    49    23    62 1   
    50    24    25 1   
    51    24    63 1   
    52    24    64 1   
    53    25    26 1   
    54    25    39 1   
    55    25    65 1   
    56    26    27 ar  
    57    26    30 ar  
    58    27    28 1   
    59    27    33 ar  
    60    28    29 1   
    61    28    66 1   
    62    28    67 1   
    63    29    39 1   
    64    29    68 1   
    65    29    69 1   
    66    30    31 ar  
    67    30    73 1   
    68    31    32 ar  
    69    31    86 1   
    70    32    33 ar  
    71    33    74 1   
    72    34    78 1   
    73    34    79 1   
    74    34    80 1   
    75    35    36 1   
    76    35    81 1   
    77    35    82 1   
    78    36    38 1   
    79    36    83 1   
    80    36    84 1   
    81    37    38 1   
    82    37    85 1   
    83    38    92 1   
    84    39    87 1   
    85    48    92 1   
    86    49    92 1   
    87    50    92 1   
    88    56    93 1   
    89    57    93 1   
    90    58    93 1   
    91    70    87 1   
    92    71    87 1   
    93    72    87 1   
    94    75    89 1   
    95    76    89 1   
    96    77    89 1   
    97    86    89 1   
    98    90    93 1   
@<TRIPOS>SUBSTRUCTURE
     1 KYL         1 TEMP              0 ****  ****    0 ROOT
