@<TRIPOS>MOLECULE
KYM
   55    60     1     0     0
SMALL
No Charge or Current Charge


@<TRIPOS>ATOM
      1 O2          21.0870    -9.4980     6.9660 o          1 KYM      -0.586100
      2 C13         22.1560   -10.0670     7.1470 c          1 KYM       0.617700
      3 N1          22.2430   -11.4760     7.0570 n          1 KYM      -0.416800
      4 C17         23.2280   -12.2660     7.8790 c6         1 KYM       0.080700
      5 C16         22.5600   -13.3090     8.7530 cc         1 KYM       0.357800
      6 N3          23.0970   -14.0590     9.6970 nd         1 KYM      -0.352000
      7 N4          22.1010   -14.8520    10.2210 nd         1 KYM      -0.360000
      8 C18         20.9650   -14.5850     9.5890 cc         1 KYM       0.435800
      9 C19         19.6500   -15.2010     9.8510 cx         1 KYM      -0.188000
     10 C21         19.0230   -16.0980     8.8040 cx         1 KYM      -0.105400
     11 C20         19.5410   -16.6930    10.0920 cx         1 KYM      -0.105400
     12 N2          21.2290   -13.6120     8.6580 na         1 KYM      -0.376000
     13 C15         20.2930   -12.9480     7.7290 c6         1 KYM       0.055600
     14 C14         21.0870   -12.2920     6.5680 c6         1 KYM       0.077000
     15 C12         23.4230    -9.2670     7.3760 ca         1 KYM      -0.131600
     16 C11         24.6800    -9.7020     6.8970 ca         1 KYM      -0.078000
     17 C10         25.8330    -8.9270     7.1090 ca         1 KYM      -0.090000
     18 C22         23.3460    -8.0170     8.0270 ca         1 KYM      -0.078000
     19 C23         24.5020    -7.2450     8.2390 ca         1 KYM      -0.090000
     20 C9          25.7570    -7.7020     7.7950 ca         1 KYM      -0.044800
     21 C8          26.9960    -6.8970     8.0000 ce         1 KYM      -0.099200
     22 C7          27.3490    -6.0730     9.0460 cd         1 KYM      -0.040100
     23 C6          28.5840    -5.2870     9.2860 c          1 KYM       0.581900
     24 O1          29.5800    -5.1800     8.5800 o          1 KYM      -0.492100
     25 O3          26.5090    -5.9010    10.1190 os         1 KYM      -0.233200
     26 C24         27.0940    -5.0640    11.0380 ca         1 KYM       0.167100
     27 C1          26.5640    -4.6340    12.2700 ca         1 KYM      -0.174600
     28 C           25.2150    -5.0640    12.7860 c          1 KYM       0.624700
     29 O           24.7540    -4.6490    13.8370 o          1 KYM      -0.611100
     30 N           24.4940    -5.9400    12.0600 nt         1 KYM      -0.600000
     31 C5          28.3420    -4.6520    10.5980 ca         1 KYM      -0.261600
     32 C4          29.1490    -3.7870    11.3440 ca         1 KYM       0.019000
     33 C3          28.6430    -3.3370    12.5800 ca         1 KYM      -0.162000
     34 C2          27.3690    -3.7530    13.0370 ca         1 KYM      -0.001000
     35 H1          23.9410   -12.7600     7.2050 h1         1 KYM       0.083200
     36 H2          23.8050   -11.5950     8.5280 h1         1 KYM       0.083200
     37 H3          18.9860   -14.5540    10.4180 hc         1 KYM       0.087700
     38 H4          17.9450   -16.0430     8.6690 hc         1 KYM       0.082200
     39 H5          19.5850   -16.2960     7.8940 hc         1 KYM       0.082200
     40 H6          18.8120   -17.0370    10.8210 hc         1 KYM       0.082200
     41 H7          20.4490   -17.2910    10.0410 hc         1 KYM       0.082200
     42 H8          19.7330   -12.1760     8.2760 h1         1 KYM       0.071200
     43 H9          19.5730   -13.6750     7.3270 h1         1 KYM       0.071200
     44 H10         20.4080   -11.6810     5.9560 h1         1 KYM       0.079700
     45 H11         21.4720   -13.0840     5.9110 h1         1 KYM       0.079700
     46 H12         24.7690   -10.6310     6.3390 ha         1 KYM       0.127000
     47 H13         26.7910    -9.2830     6.7360 ha         1 KYM       0.125000
     48 H14         22.3870    -7.6430     8.3780 ha         1 KYM       0.127000
     49 H15         24.4100    -6.2820     8.7340 ha         1 KYM       0.125000
     50 H16         27.7540    -7.0040     7.2220 ha         1 KYM       0.208000
     51 H17         23.5910    -6.2380    12.3960 hn         1 KYM       0.324500
     52 H18         24.8710    -6.2960    11.1940 hn         1 KYM       0.324500
     53 H19         30.1280    -3.4730    10.9860 ha         1 KYM       0.137000
     54 H20         29.2400    -2.6620    13.1890 ha         1 KYM       0.131000
     55 H21         27.0110    -3.3860    13.9980 ha         1 KYM       0.148000
@<TRIPOS>BOND
     1     1     2 2   
     2     2     3 1   
     3     2    15 1   
     4     3     4 1   
     5     3    14 1   
     6     4     5 1   
     7     4    35 1   
     8     4    36 1   
     9     5     6 2   
    10     5    12 1   
    11     6     7 1   
    12     7     8 2   
    13     8     9 1   
    14     8    12 1   
    15     9    10 1   
    16     9    11 1   
    17     9    37 1   
    18    10    11 1   
    19    10    38 1   
    20    10    39 1   
    21    11    40 1   
    22    11    41 1   
    23    12    13 1   
    24    13    14 1   
    25    13    42 1   
    26    13    43 1   
    27    14    44 1   
    28    14    45 1   
    29    15    16 ar  
    30    15    18 ar  
    31    16    17 ar  
    32    16    46 1   
    33    17    20 ar  
    34    17    47 1   
    35    18    19 ar  
    36    18    48 1   
    37    19    20 ar  
    38    19    49 1   
    39    20    21 1   
    40    21    22 2   
    41    21    50 1   
    42    22    23 1   
    43    22    25 1   
    44    23    24 2   
    45    23    31 1   
    46    25    26 1   
    47    26    27 ar  
    48    26    31 ar  
    49    27    28 1   
    50    27    34 ar  
    51    28    29 2   
    52    28    30 1   
    53    30    51 1   
    54    30    52 1   
    55    31    32 ar  
    56    32    33 ar  
    57    32    53 1   
    58    33    34 ar  
    59    33    54 1   
    60    34    55 1   
@<TRIPOS>SUBSTRUCTURE
     1 KYM         1 TEMP              0 ****  ****    0 ROOT
