@<TRIPOS>MOLECULE
KYM
   55    60     1     0     0
SMALL
abcg2


@<TRIPOS>ATOM
      1 O2          21.1750    -9.4690     6.6300 o          1 KYM      -0.586100
      2 C13         22.1880   -10.1180     6.8940 c          1 KYM       0.617700
      3 N1          22.2260   -11.4710     6.7980 n          1 KYM      -0.416800
      4 C17         23.2580   -12.3220     7.3820 c6         1 KYM       0.080700
      5 C16         22.6260   -13.2760     8.3490 cc         1 KYM       0.357800
      6 N3          23.2220   -14.0250     9.2400 nd         1 KYM      -0.352000
      7 N4          22.2320   -14.7440     9.8960 nd         1 KYM      -0.360000
      8 C18         21.0750   -14.4050     9.3720 cc         1 KYM       0.435800
      9 C19         19.7440   -14.9150     9.7210 cx         1 KYM      -0.188000
     10 C21         19.3050   -16.2720     9.1980 cx         1 KYM      -0.105400
     11 C20         19.6040   -16.0840    10.6540 cx         1 KYM      -0.105400
     12 N2          21.2810   -13.4820     8.3830 na         1 KYM      -0.376000
     13 C15         20.3060   -12.8030     7.5330 c6         1 KYM       0.055600
     14 C14         21.0460   -12.2020     6.3450 c6         1 KYM       0.077000
     15 C12         23.4420    -9.4010     7.2880 ca         1 KYM      -0.131600
     16 C11         24.6340    -9.5790     6.5870 ca         1 KYM      -0.078000
     17 C10         25.7460    -8.8180     6.9070 ca         1 KYM      -0.090000
     18 C22         23.3810    -8.4550     8.3120 ca         1 KYM      -0.078000
     19 C23         24.4990    -7.7150     8.6530 ca         1 KYM      -0.090000
     20 C9          25.7060    -7.8820     7.9530 ca         1 KYM      -0.044800
     21 C8          26.9090    -7.1220     8.2280 ce         1 KYM      -0.099200
     22 C7          27.2040    -6.2940     9.2390 cd         1 KYM      -0.040100
     23 C6          28.4630    -5.5190     9.4010 c          1 KYM       0.581900
     24 O1          29.4250    -5.5220     8.6470 o          1 KYM      -0.492100
     25 O3          26.3610    -6.0180    10.3070 os         1 KYM      -0.233200
     26 C24         27.0010    -5.1230    11.1320 ca         1 KYM       0.167100
     27 C1          26.4830    -4.6050    12.3150 ca         1 KYM      -0.174600
     28 C           25.1550    -4.9420    12.9240 c          1 KYM       0.624700
     29 O           24.7070    -4.2780    13.8590 o          1 KYM      -0.611100
     30 N           24.4960    -5.9970    12.4110 nt         1 KYM      -0.600000
     31 C5          28.2590    -4.7720    10.6440 ca         1 KYM      -0.261600
     32 C4          29.0580    -3.8630    11.3290 ca         1 KYM       0.019000
     33 C3          28.5630    -3.3170    12.5050 ca         1 KYM      -0.162000
     34 C2          27.3040    -3.6850    12.9770 ca         1 KYM      -0.001000
     35 H1          23.7700   -12.8800     6.5920 h1         1 KYM       0.083200
     36 H2          23.9980   -11.7220     7.9020 h1         1 KYM       0.083200
     37 H3          18.9740   -14.1550     9.7650 hc         1 KYM       0.087700
     38 H4          18.2740   -16.3680     8.8860 hc         1 KYM       0.082200
     39 H5          20.0210   -16.8210     8.6030 hc         1 KYM       0.082200
     40 H6          18.7750   -16.0580    11.3490 hc         1 KYM       0.082200
     41 H7          20.5140   -16.5180    11.0420 hc         1 KYM       0.082200
     42 H8          19.8060   -12.0240     8.1110 h1         1 KYM       0.071200
     43 H9          19.5620   -13.5240     7.1970 h1         1 KYM       0.071200
     44 H10         20.3930   -11.5250     5.8040 h1         1 KYM       0.079700
     45 H11         21.3780   -12.9940     5.6700 h1         1 KYM       0.079700
     46 H12         24.6890   -10.2980     5.7800 ha         1 KYM       0.127000
     47 H13         26.6630    -8.9450     6.3450 ha         1 KYM       0.125000
     48 H14         22.4500    -8.3010     8.8410 ha         1 KYM       0.127000
     49 H15         24.4280    -6.9860     9.4440 ha         1 KYM       0.125000
     50 H16         27.7160    -7.2280     7.5110 ha         1 KYM       0.208000
     51 H17         23.6120    -6.2600    12.8180 hn         1 KYM       0.324500
     52 H18         24.8810    -6.5670    11.6770 hn         1 KYM       0.324500
     53 H19         30.0340    -3.5940    10.9470 ha         1 KYM       0.137000
     54 H20         29.1530    -2.6040    13.0650 ha         1 KYM       0.131000
     55 H21         26.9270    -3.2560    13.8960 ha         1 KYM       0.148000
@<TRIPOS>BOND
     1     1     2 2   
     2     2     3 1   
     3     2    15 1   
     4     3     4 1   
     5     3    14 1   
     6     4     5 1   
     7     4    35 1   
     8     4    36 1   
     9     5     6 2   
    10     5    12 1   
    11     6     7 1   
    12     7     8 2   
    13     8     9 1   
    14     8    12 1   
    15     9    10 1   
    16     9    11 1   
    17     9    37 1   
    18    10    11 1   
    19    10    38 1   
    20    10    39 1   
    21    11    40 1   
    22    11    41 1   
    23    12    13 1   
    24    13    14 1   
    25    13    42 1   
    26    13    43 1   
    27    14    44 1   
    28    14    45 1   
    29    15    16 ar  
    30    15    18 ar  
    31    16    17 ar  
    32    16    46 1   
    33    17    20 ar  
    34    17    47 1   
    35    18    19 ar  
    36    18    48 1   
    37    19    20 ar  
    38    19    49 1   
    39    20    21 1   
    40    21    22 2   
    41    21    50 1   
    42    22    23 1   
    43    22    25 1   
    44    23    24 2   
    45    23    31 1   
    46    25    26 1   
    47    26    27 ar  
    48    26    31 ar  
    49    27    28 1   
    50    27    34 ar  
    51    28    29 2   
    52    28    30 1   
    53    30    51 1   
    54    30    52 1   
    55    31    32 ar  
    56    32    33 ar  
    57    32    53 1   
    58    33    34 ar  
    59    33    54 1   
    60    34    55 1   
@<TRIPOS>SUBSTRUCTURE
     1 KYM         1 TEMP              0 ****  ****    0 ROOT
