@<TRIPOS>MOLECULE
KYN
   26    26     1     0     0
SMALL
bcc


@<TRIPOS>ATOM
      1 C           20.5630   -28.8060     8.5740 c          1 KYN       0.928600
      2 N           20.2800   -30.0630     6.4490 n8         1 KYN      -0.902800
      3 OXT         21.2580   -28.5920     9.5860 o          1 KYN      -0.835300
      4 C1          22.8050   -31.5170     6.9010 c          1 KYN       0.587700
      5 O2          22.1390   -32.5260     7.0330 o          1 KYN      -0.565100
      6 CA          20.9040   -30.0860     7.7630 c3         1 KYN       0.028500
      7 CB          22.4160   -30.2440     7.6180 c3         1 KYN      -0.141400
      8 CG          25.1270   -30.7350     6.1080 ca         1 KYN       0.205600
      9 CZ          24.8350   -32.4470     3.8870 ca         1 KYN      -0.203000
     10 CD1         26.1140   -30.8170     5.1100 ca         1 KYN      -0.229000
     11 CD2         23.9660   -31.5250     5.9670 ca         1 KYN      -0.219600
     12 CE1         25.9680   -31.6460     4.0190 ca         1 KYN      -0.080000
     13 CE2         23.8650   -32.3850     4.8650 ca         1 KYN      -0.045000
     14 O           19.5990   -28.1260     8.1710 o          1 KYN      -0.835300
     15 H           20.0110   -30.9970     6.1720 hn         1 KYN       0.335300
     16 H2          19.4290   -29.5200     6.5260 hn         1 KYN       0.335300
     17 HN1         24.9230   -30.1040     8.0470 hn         1 KYN       0.401800
     18 HN1A        26.2850   -29.5500     7.2640 hn         1 KYN       0.401800
     19 HA          20.5350   -30.9220     8.3780 h1         1 KYN       0.017700
     20 HB          22.8690   -30.2590     8.6150 hc         1 KYN       0.070700
     21 HBA         22.8280   -29.3770     7.0970 hc         1 KYN       0.070700
     22 HE1         26.7480   -31.6770     3.2700 ha         1 KYN       0.113000
     23 HE2         22.9770   -32.9960     4.7690 ha         1 KYN       0.143000
     24 HZ          24.7170   -33.1030     3.0360 ha         1 KYN       0.122000
     25 N1          25.3380   -29.8780     7.1600 nv         1 KYN      -0.823200
     26 HD1         27.0110   -30.2180     5.2130 ha         1 KYN       0.118000
@<TRIPOS>BOND
     1     1     3 1   
     2     1     6 1   
     3     1    14 1   
     4     2     6 1   
     5     2    15 1   
     6     2    16 1   
     7     4     5 2   
     8     4     7 1   
     9     4    11 1   
    10     6     7 1   
    11     6    19 1   
    12     7    20 1   
    13     7    21 1   
    14     8    10 ar  
    15     8    11 ar  
    16     8    25 1   
    17     9    12 ar  
    18     9    13 ar  
    19     9    24 1   
    20    10    12 ar  
    21    10    26 1   
    22    11    13 ar  
    23    12    22 1   
    24    13    23 1   
    25    17    25 1   
    26    18    25 1   
@<TRIPOS>SUBSTRUCTURE
     1 KYN         1 TEMP              0 ****  ****    0 ROOT
