@<TRIPOS>MOLECULE
KYN
   26    26     1     0     0
SMALL
No Charge or Current Charge


@<TRIPOS>ATOM
      1 C           20.2240   -28.9980     8.4830 c          1 KYN       0.928600
      2 N           20.9150   -29.6880     6.0230 n8         1 KYN      -0.902800
      3 OXT         20.8260   -28.0520     8.9860 o          1 KYN      -0.835300
      4 C1          23.0450   -31.5290     7.4040 c          1 KYN       0.587700
      5 O2          22.7550   -32.5820     7.9620 o          1 KYN      -0.565100
      6 CA          20.9970   -29.9940     7.4990 c3         1 KYN       0.028500
      7 CB          22.4830   -30.1950     7.9120 c3         1 KYN      -0.141400
      8 CG          25.1820   -30.8440     6.1930 ca         1 KYN       0.205600
      9 CZ          24.3670   -32.2970     3.9250 ca         1 KYN      -0.203000
     10 CD1         25.9820   -30.8700     5.0410 ca         1 KYN      -0.229000
     11 CD2         23.9520   -31.5350     6.2080 ca         1 KYN      -0.219600
     12 CE1         25.5780   -31.5900     3.9040 ca         1 KYN      -0.080000
     13 CE2         23.5580   -32.2740     5.0730 ca         1 KYN      -0.045000
     14 O           19.0370   -29.2110     8.7110 o          1 KYN      -0.835300
     15 H           21.3260   -30.4540     5.4800 hn         1 KYN       0.335300
     16 H2          19.9300   -29.6700     5.7350 hn         1 KYN       0.335300
     17 HN1         25.2060   -30.2570     8.1920 hn         1 KYN       0.401800
     18 HN1A        26.5820   -29.7530     7.2610 hn         1 KYN       0.401800
     19 HA          20.4980   -30.9640     7.6330 h1         1 KYN       0.017700
     20 HB          22.5400   -30.2040     9.0070 hc         1 KYN       0.070700
     21 HBA         23.0620   -29.3550     7.5130 hc         1 KYN       0.070700
     22 HE1         26.2060   -31.6060     3.0150 ha         1 KYN       0.113000
     23 HE2         22.6190   -32.8260     5.0780 ha         1 KYN       0.143000
     24 HZ          24.0540   -32.8630     3.0500 ha         1 KYN       0.122000
     25 N1          25.6550   -30.1670     7.2860 nv         1 KYN      -0.823200
     26 HD1         26.9300   -30.3380     5.0230 ha         1 KYN       0.118000
@<TRIPOS>BOND
     1     1     3 1   
     2     1     6 1   
     3     1    14 1   
     4     2     6 1   
     5     2    15 1   
     6     2    16 1   
     7     4     5 2   
     8     4     7 1   
     9     4    11 1   
    10     6     7 1   
    11     6    19 1   
    12     7    20 1   
    13     7    21 1   
    14     8    10 ar  
    15     8    11 ar  
    16     8    25 1   
    17     9    12 ar  
    18     9    13 ar  
    19     9    24 1   
    20    10    12 ar  
    21    10    26 1   
    22    11    13 ar  
    23    12    22 1   
    24    13    23 1   
    25    17    25 1   
    26    18    25 1   
@<TRIPOS>SUBSTRUCTURE
     1 KYN         1 TEMP              0 ****  ****    0 ROOT
