@<TRIPOS>MOLECULE
KYP
   57    61     1     0     0
SMALL
No Charge or Current Charge


@<TRIPOS>ATOM
      1 O2          -3.0690    -3.4510     0.5680 o          1 KYP      -0.596100
      2 C13         -2.4760    -2.5870    -0.0670 c          1 KYP       0.618700
      3 N1          -3.1940    -1.6190    -0.8060 n          1 KYP      -0.408800
      4 C21         -2.7240    -0.2100    -0.9350 c6         1 KYP       0.071000
      5 C20         -3.4880     0.7650     0.0050 c6         1 KYP       0.201800
      6 N2          -4.9840     0.6310    -0.0970 nh         1 KYP      -0.774300
      7 C16         -5.8480     1.7100     0.2450 ca         1 KYP       0.392900
      8 N4          -5.2840     2.9270     0.4200 nb         1 KYP      -0.250000
      9 C19         -6.1020     3.9460     0.7400 ca         1 KYP       0.154400
     10 C18         -7.4840     3.7550     0.8850 ca         1 KYP      -0.289000
     11 C17         -7.9820     2.4600     0.6840 ca         1 KYP       0.154400
     12 N3          -7.1670     1.4380     0.3640 nb         1 KYP      -0.250000
     13 C15         -5.4590    -0.7960    -0.0390 c6         1 KYP       0.201800
     14 C14         -4.6650    -1.7210    -1.0000 c6         1 KYP       0.071000
     15 C12         -0.9640    -2.6030    -0.1590 ca         1 KYP      -0.144600
     16 C11         -0.2060    -3.1110     0.9190 ca         1 KYP      -0.077500
     17 C10          1.1970    -3.1550     0.8510 ca         1 KYP      -0.104000
     18 C22         -0.2830    -2.1780    -1.3230 ca         1 KYP      -0.077500
     19 C23          1.1200    -2.2240    -1.3890 ca         1 KYP      -0.104000
     20 C9           1.8690    -2.7100    -0.3020 ca         1 KYP      -0.067300
     21 C8           3.3900    -2.7490    -0.3710 c3         1 KYP       0.042100
     22 C7           4.0150    -1.4840     0.1480 cc         1 KYP       0.002900
     23 C6           4.3650    -1.1030     1.4240 cd         1 KYP       0.058900
     24 O1           4.2390    -1.8150     2.5650 oh         1 KYP      -0.515100
     25 O3           4.3050    -0.4520    -0.7440 os         1 KYP      -0.134200
     26 C24          4.8420     0.5590     0.0390 ca         1 KYP       0.124100
     27 C1           5.2920     1.8180    -0.4130 ca         1 KYP      -0.150600
     28 C            5.2260     2.1990    -1.8770 c          1 KYP       0.624700
     29 O            4.7950     1.4620    -2.7480 o          1 KYP      -0.586100
     30 N            5.6720     3.4240    -2.2340 nt         1 KYP      -0.606000
     31 C5           4.9030     0.2150     1.3710 ca         1 KYP      -0.168800
     32 C4           5.4060     1.0710     2.3570 ca         1 KYP      -0.037000
     33 C3           5.8630     2.3340     1.9380 ca         1 KYP      -0.142000
     34 C2           5.8080     2.7060     0.5730 ca         1 KYP      -0.062000
     35 H1          -1.6530    -0.1230    -0.7100 h1         1 KYP       0.066700
     36 H2          -2.8640     0.1150    -1.9760 h1         1 KYP       0.066700
     37 H3          -3.1710     0.5730     1.0410 h1         1 KYP       0.072950
     38 H4          -3.1560     1.7820    -0.2480 h1         1 KYP       0.072950
     39 H5          -5.6440     4.9240     0.8800 h4         1 KYP       0.019100
     40 H6          -8.1430     4.5800     1.1440 ha         1 KYP       0.135000
     41 H7          -9.0440     2.2370     0.7790 h4         1 KYP       0.019100
     42 H8          -5.3580    -1.1820     0.9860 h1         1 KYP       0.072950
     43 H9          -6.5200    -0.8820    -0.3140 h1         1 KYP       0.072950
     44 H10         -4.9010    -1.4380    -2.0350 h1         1 KYP       0.066700
     45 H11         -5.0020    -2.7590    -0.8710 h1         1 KYP       0.066700
     46 H12         -0.7060    -3.4620     1.8190 ha         1 KYP       0.123000
     47 H13          1.7630    -3.5340     1.6990 ha         1 KYP       0.123000
     48 H14         -0.8390    -1.8240    -2.1900 ha         1 KYP       0.123000
     49 H15          1.6250    -1.8830    -2.2900 ha         1 KYP       0.123000
     50 H16          3.7690    -3.6020     0.2040 hc         1 KYP       0.075200
     51 H17          3.7160    -2.9220    -1.4030 hc         1 KYP       0.075200
     52 H19          6.0340     4.0570    -1.5390 hn         1 KYP       0.315500
     53 H20          5.6350     3.6940    -3.2050 hn         1 KYP       0.315500
     54 H21          5.4450     0.7810     3.4050 ha         1 KYP       0.119000
     55 H22          6.2620     3.0310     2.6710 ha         1 KYP       0.120000
     56 H23          6.1740     3.6930     0.3010 ha         1 KYP       0.117000
     57 H18          4.5790    -1.2560     3.2950 ho         1 KYP       0.466000
@<TRIPOS>BOND
     1     1     2 2   
     2     2     3 1   
     3     2    15 1   
     4     3     4 1   
     5     3    14 1   
     6     4     5 1   
     7     4    35 1   
     8     4    36 1   
     9     5     6 1   
    10     5    37 1   
    11     5    38 1   
    12     6     7 1   
    13     6    13 1   
    14     7     8 ar  
    15     7    12 ar  
    16     8     9 ar  
    17     9    10 ar  
    18     9    39 1   
    19    10    11 ar  
    20    10    40 1   
    21    11    12 ar  
    22    11    41 1   
    23    13    14 1   
    24    13    42 1   
    25    13    43 1   
    26    14    44 1   
    27    14    45 1   
    28    15    16 ar  
    29    15    18 ar  
    30    16    17 ar  
    31    16    46 1   
    32    17    20 ar  
    33    17    47 1   
    34    18    19 ar  
    35    18    48 1   
    36    19    20 ar  
    37    19    49 1   
    38    20    21 1   
    39    21    22 1   
    40    21    50 1   
    41    21    51 1   
    42    22    23 2   
    43    22    25 1   
    44    23    24 1   
    45    23    31 1   
    46    24    57 1   
    47    25    26 1   
    48    26    27 ar  
    49    26    31 ar  
    50    27    28 1   
    51    27    34 ar  
    52    28    29 2   
    53    28    30 1   
    54    30    52 1   
    55    30    53 1   
    56    31    32 ar  
    57    32    33 ar  
    58    32    54 1   
    59    33    34 ar  
    60    33    55 1   
    61    34    56 1   
@<TRIPOS>SUBSTRUCTURE
     1 KYP         1 TEMP              0 ****  ****    0 ROOT
