@<TRIPOS>MOLECULE
KYP
   57    61     1     0     0
SMALL
abcg2


@<TRIPOS>ATOM
      1 O2          -2.9130    -3.6220     0.4770 o          1 KYP      -0.596100
      2 C13         -2.3930    -2.6060     0.0340 c          1 KYP       0.618700
      3 N1          -3.1030    -1.5140    -0.3210 n          1 KYP      -0.408800
      4 C21         -2.5560    -0.1820    -0.5310 c6         1 KYP       0.071000
      5 C20         -3.1010     0.7890     0.5110 c6         1 KYP       0.201800
      6 N2          -4.5460     0.7580     0.5420 nh         1 KYP      -0.774300
      7 C16         -5.3130     1.8080     0.1580 ca         1 KYP       0.392900
      8 N4          -4.6910     2.9550    -0.1430 nb         1 KYP      -0.250000
      9 C19         -5.4540     3.9740    -0.4970 ca         1 KYP       0.154400
     10 C18         -6.8360     3.8990    -0.5640 ca         1 KYP      -0.289000
     11 C17         -7.3760     2.6660    -0.2320 ca         1 KYP       0.154400
     12 N3          -6.6400     1.6290     0.1240 nb         1 KYP      -0.250000
     13 C15         -5.0830    -0.5660     0.7750 c6         1 KYP       0.201800
     14 C14         -4.5560    -1.5350    -0.2750 c6         1 KYP       0.071000
     15 C12         -0.9100    -2.5780    -0.1620 ca         1 KYP      -0.144600
     16 C11         -0.0920    -3.0230     0.8740 ca         1 KYP      -0.077500
     17 C10          1.2800    -3.0880     0.7040 ca         1 KYP      -0.104000
     18 C22         -0.3320    -2.2390    -1.3810 ca         1 KYP      -0.077500
     19 C23          1.0420    -2.3270    -1.5530 ca         1 KYP      -0.104000
     20 C9           1.8630    -2.7450    -0.5130 ca         1 KYP      -0.067300
     21 C8           3.3630    -2.7980    -0.6800 c3         1 KYP       0.042100
     22 C7           4.0200    -1.6240    -0.0560 cc         1 KYP       0.002900
     23 C6           4.7830    -1.4910     1.0520 cd         1 KYP       0.058900
     24 O1           5.1320    -2.4910     1.8840 oh         1 KYP      -0.515100
     25 O3           3.7940    -0.4020    -0.6330 os         1 KYP      -0.134200
     26 C24          4.4400     0.5170     0.1030 ca         1 KYP       0.124100
     27 C1           4.4620     1.8920    -0.1090 ca         1 KYP      -0.150600
     28 C            3.8040     2.5020    -1.3020 c          1 KYP       0.624700
     29 O            3.7540     1.9100    -2.3710 o          1 KYP      -0.586100
     30 N            3.2970     3.7280    -1.1140 nt         1 KYP      -0.606000
     31 C5           5.0780    -0.0910     1.1860 ca         1 KYP      -0.168800
     32 C4           5.7880     0.6810     2.1030 ca         1 KYP      -0.037000
     33 C3           5.8330     2.0490     1.9030 ca         1 KYP      -0.142000
     34 C2           5.1790     2.6410     0.8190 ca         1 KYP      -0.062000
     35 H1          -1.4730    -0.1940    -0.4570 h1         1 KYP       0.066700
     36 H2          -2.8210     0.1650    -1.5340 h1         1 KYP       0.066700
     37 H3          -2.7150     0.5110     1.4980 h1         1 KYP       0.072950
     38 H4          -2.7540     1.7930     0.2870 h1         1 KYP       0.072950
     39 H5          -4.9380     4.8970    -0.7400 h4         1 KYP       0.019100
     40 H6          -7.4470     4.7390    -0.8550 ha         1 KYP       0.135000
     41 H7          -8.4490     2.5070    -0.2560 h4         1 KYP       0.019100
     42 H8          -4.7810    -0.9040     1.7720 h1         1 KYP       0.072950
     43 H9          -6.1680    -0.5390     0.7430 h1         1 KYP       0.072950
     44 H10         -4.9410    -1.2500    -1.2590 h1         1 KYP       0.066700
     45 H11         -4.9020    -2.5420    -0.0580 h1         1 KYP       0.066700
     46 H12         -0.5270    -3.3140     1.8220 ha         1 KYP       0.123000
     47 H13          1.9020    -3.4200     1.5270 ha         1 KYP       0.123000
     48 H14         -0.9490    -1.9150    -2.2100 ha         1 KYP       0.123000
     49 H15          1.4760    -2.0680    -2.5110 ha         1 KYP       0.123000
     50 H16          3.7620    -3.7000    -0.2140 hc         1 KYP       0.075200
     51 H17          3.6200    -2.8520    -1.7420 hc         1 KYP       0.075200
     52 H19          3.2320     4.1500    -0.2040 hn         1 KYP       0.315500
     53 H20          2.8560     4.2130    -1.8790 hn         1 KYP       0.315500
     54 H21          6.2880     0.2290     2.9500 ha         1 KYP       0.119000
     55 H22          6.3810     2.6760     2.5920 ha         1 KYP       0.120000
     56 H23          5.2590     3.7140     0.6920 ha         1 KYP       0.117000
     57 H18          6.0030    -2.3210     2.2600 ho         1 KYP       0.466000
@<TRIPOS>BOND
     1     1     2 2   
     2     2     3 1   
     3     2    15 1   
     4     3     4 1   
     5     3    14 1   
     6     4     5 1   
     7     4    35 1   
     8     4    36 1   
     9     5     6 1   
    10     5    37 1   
    11     5    38 1   
    12     6     7 1   
    13     6    13 1   
    14     7     8 ar  
    15     7    12 ar  
    16     8     9 ar  
    17     9    10 ar  
    18     9    39 1   
    19    10    11 ar  
    20    10    40 1   
    21    11    12 ar  
    22    11    41 1   
    23    13    14 1   
    24    13    42 1   
    25    13    43 1   
    26    14    44 1   
    27    14    45 1   
    28    15    16 ar  
    29    15    18 ar  
    30    16    17 ar  
    31    16    46 1   
    32    17    20 ar  
    33    17    47 1   
    34    18    19 ar  
    35    18    48 1   
    36    19    20 ar  
    37    19    49 1   
    38    20    21 1   
    39    21    22 1   
    40    21    50 1   
    41    21    51 1   
    42    22    23 2   
    43    22    25 1   
    44    23    24 1   
    45    23    31 1   
    46    24    57 1   
    47    25    26 1   
    48    26    27 ar  
    49    26    31 ar  
    50    27    28 1   
    51    27    34 ar  
    52    28    29 2   
    53    28    30 1   
    54    30    52 1   
    55    30    53 1   
    56    31    32 ar  
    57    32    33 ar  
    58    32    54 1   
    59    33    34 ar  
    60    33    55 1   
    61    34    56 1   
@<TRIPOS>SUBSTRUCTURE
     1 KYP         1 TEMP              0 ****  ****    0 ROOT
