@<TRIPOS>MOLECULE
KYQ
   30    29     1     0     0
SMALL
No Charge or Current Charge


@<TRIPOS>ATOM
      1 N           -0.0240    31.8720    -3.2270 n8         1 KYQ      -1.001200
      2 CA           0.6940    31.1240    -4.3230 c3         1 KYQ       0.013500
      3 CB           0.5920    31.9160    -5.6560 c3         1 KYQ      -0.046400
      4 CG           1.1310    31.1510    -6.8880 c3         1 KYQ      -0.073400
      5 CD           0.9590    31.9320    -8.2090 c3         1 KYQ      -0.084400
      6 CE           1.4970    31.1620    -9.4350 c3         1 KYQ       0.097800
      7 NZ           1.3010    31.9440   -10.6670 n2         1 KYQ      -0.584900
      8 C11          2.2060    32.7580   -11.1690 ce         1 KYQ       0.302300
      9 C12          1.9050    33.4790   -12.5100 c          1 KYQ       0.631700
     10 O16          0.8210    33.3110   -13.0650 o          1 KYQ      -0.710000
     11 O15          2.7610    34.2090   -13.0080 o          1 KYQ      -0.710000
     12 C13          3.5910    32.9960   -10.5030 c3         1 KYQ       0.090300
     13 O14          4.2690    34.2060   -10.8990 oh         1 KYQ      -0.726000
     14 C            2.1900    30.7010    -4.0050 c          1 KYQ       0.691000
     15 O            2.9810    31.5700    -3.6570 o          1 KYQ      -0.741000
     16 OXT          2.4660    29.5090    -3.9930 o          1 KYQ      -0.741000
     17 HN          -0.0050    31.3060    -2.3690 hn         1 KYQ       0.374500
     18 HNA          0.5400    32.6940    -2.9770 hn         1 KYQ       0.374500
     19 HA           0.1350    30.1890    -4.4670 h1         1 KYQ       0.034700
     20 HB          -0.4600    32.1730    -5.8390 hc         1 KYQ       0.023200
     21 HBA          1.1360    32.8640    -5.5580 hc         1 KYQ       0.023200
     22 HG           2.1960    30.9280    -6.7450 hc         1 KYQ       0.044200
     23 HGA          0.6110    30.1880    -6.9690 hc         1 KYQ       0.044200
     24 HD          -0.1050    32.1510    -8.3620 hc         1 KYQ       0.034700
     25 HDA          1.4760    32.8960    -8.1250 hc         1 KYQ       0.034700
     26 HE           2.5540    30.9090    -9.2770 h1         1 KYQ       0.027700
     27 HEA          0.9530    30.2110    -9.5140 h1         1 KYQ       0.027700
     28 H13          3.4600    33.0190    -9.4140 h1         1 KYQ       0.022200
     29 H13A         4.2240    32.1280   -10.7270 h1         1 KYQ       0.022200
     30 HO14         3.9030    34.4140   -11.8090 ho         1 KYQ       0.503000
@<TRIPOS>BOND
     1     1     2 1   
     2     1    17 1   
     3     1    18 1   
     4     2     3 1   
     5     2    14 1   
     6     2    19 1   
     7     3     4 1   
     8     3    20 1   
     9     3    21 1   
    10     4     5 1   
    11     4    22 1   
    12     4    23 1   
    13     5     6 1   
    14     5    24 1   
    15     5    25 1   
    16     6     7 1   
    17     6    26 1   
    18     6    27 1   
    19     7     8 2   
    20     8     9 1   
    21     8    12 1   
    22     9    10 1   
    23     9    11 1   
    24    12    13 1   
    25    12    28 1   
    26    12    29 1   
    27    13    30 1   
    28    14    15 1   
    29    14    16 1   
@<TRIPOS>SUBSTRUCTURE
     1 KYQ         1 TEMP              0 ****  ****    0 ROOT
