@<TRIPOS>MOLECULE
KYQ
   30    29     1     0     0
SMALL
bcc


@<TRIPOS>ATOM
      1 N            0.0110    31.8120    -3.3740 n8         1 KYQ      -0.890800
      2 CA           0.7400    31.0770    -4.4070 c3         1 KYQ       0.013500
      3 CB           0.6410    31.8600    -5.7190 c3         1 KYQ      -0.046400
      4 CG           1.1790    31.1290    -6.9420 c3         1 KYQ      -0.073400
      5 CD           1.0090    31.9330    -8.2240 c3         1 KYQ      -0.084400
      6 CE           1.4640    31.1510    -9.4550 c3         1 KYQ       0.097800
      7 NZ           1.2880    31.9100   -10.6730 n2         1 KYQ      -0.584900
      8 C11          2.1550    32.7490   -11.0590 ce         1 KYQ       0.302300
      9 C12          1.8490    33.5470   -12.3450 c          1 KYQ       0.842300
     10 O16          0.8000    33.3040   -12.9440 o          1 KYQ      -0.815300
     11 O15          2.7170    34.4040   -12.6650 o          1 KYQ      -0.815300
     12 C13          3.4370    33.1090   -10.3250 c3         1 KYQ       0.067100
     13 O14          4.5240    33.3500   -11.1780 oh         1 KYQ      -0.663800
     14 C            2.2240    30.8080    -4.0620 c          1 KYQ       0.901600
     15 O            2.8410    31.7520    -3.5220 o          1 KYQ      -0.846300
     16 OXT          2.6910    29.6930    -4.3730 o          1 KYQ      -0.846300
     17 HN          -0.0110    31.2520    -2.5300 hn         1 KYQ       0.319300
     18 HNA          0.5710    32.6200    -3.1270 hn         1 KYQ       0.319300
     19 HA           0.2320    30.1170    -4.5490 h1         1 KYQ       0.034700
     20 HB          -0.4120    32.1090    -5.8870 hc         1 KYQ       0.023200
     21 HBA          1.1650    32.8160    -5.6010 hc         1 KYQ       0.023200
     22 HG           2.2380    30.8910    -6.8100 hc         1 KYQ       0.044200
     23 HGA          0.6620    30.1680    -7.0440 hc         1 KYQ       0.044200
     24 HD          -0.0380    32.2240    -8.3510 hc         1 KYQ       0.034700
     25 HDA          1.5820    32.8630    -8.1520 hc         1 KYQ       0.034700
     26 HE           2.4980    30.8150    -9.3040 h1         1 KYQ       0.027700
     27 HEA          0.8550    30.2470    -9.5340 h1         1 KYQ       0.027700
     28 H13          3.2040    33.9840    -9.6950 h1         1 KYQ       0.022200
     29 H13A         3.7220    32.3140    -9.6330 h1         1 KYQ       0.022200
     30 HO14         4.1200    33.9010   -11.8860 ho         1 KYQ       0.464000
@<TRIPOS>BOND
     1     1     2 1   
     2     1    17 1   
     3     1    18 1   
     4     2     3 1   
     5     2    14 1   
     6     2    19 1   
     7     3     4 1   
     8     3    20 1   
     9     3    21 1   
    10     4     5 1   
    11     4    22 1   
    12     4    23 1   
    13     5     6 1   
    14     5    24 1   
    15     5    25 1   
    16     6     7 1   
    17     6    26 1   
    18     6    27 1   
    19     7     8 2   
    20     8     9 1   
    21     8    12 1   
    22     9    10 1   
    23     9    11 1   
    24    12    13 1   
    25    12    28 1   
    26    12    29 1   
    27    13    30 1   
    28    14    15 1   
    29    14    16 1   
@<TRIPOS>SUBSTRUCTURE
     1 KYQ         1 TEMP              0 ****  ****    0 ROOT
