@<TRIPOS>MOLECULE
KYR
   30    32     1     0     0
SMALL
No Charge or Current Charge


@<TRIPOS>ATOM
      1 C10          1.1810    13.5290     9.1600 ca         1 KYR      -0.158000
      2 C13          5.3750    16.7930    10.9690 ca         1 KYR      -0.069500
      3 C15          4.2850    18.9730    11.0710 ca         1 KYR      -0.054300
      4 C17          2.9970    16.9350    11.4480 ca         1 KYR      -0.069500
      5 N01          5.0090    14.0950    12.1310 nc         1 KYR      -0.649100
      6 C02          4.0910    14.6750    11.3660 cd         1 KYR       0.619500
      7 C03          3.0520    13.8570    10.6970 ca         1 KYR      -0.264900
      8 C04          3.0290    12.4880    10.9730 ca         1 KYR       0.116600
      9 N05          4.0150    12.0150    11.8320 ns         1 KYR      -0.513600
     10 C06          5.0080    12.7500    12.3950 c          1 KYR       0.696400
     11 O07          5.8480    12.2300    13.1030 o          1 KYR      -0.517000
     12 C08          2.0850    11.6360    10.3840 ca         1 KYR      -0.177000
     13 C09          1.1490    12.1600     9.4790 ca         1 KYR      -0.040000
     14 C11          2.1330    14.3770     9.7560 ca         1 KYR      -0.028000
     15 C12          4.1460    16.1450    11.2270 ca         1 KYR      -0.157900
     16 C14          5.4390    18.1940    10.8800 ca         1 KYR      -0.120000
     17 C16          3.0650    18.3360    11.3600 ca         1 KYR      -0.120000
     18 H1           0.4700    13.9340     8.4430 ha         1 KYR       0.123000
     19 H2           6.2810    16.2070    10.8250 ha         1 KYR       0.124500
     20 H3           2.0480    16.4650    11.6980 ha         1 KYR       0.124500
     21 H4           4.0320    11.0250    12.0430 hn         1 KYR       0.447000
     22 H5           2.0800    10.5730    10.6150 ha         1 KYR       0.124000
     23 H6           0.4130    11.5080     9.0130 ha         1 KYR       0.118000
     24 H7           2.1490    15.4260     9.4710 ha         1 KYR       0.128000
     25 H8           6.3920    18.6740    10.6660 ha         1 KYR       0.116000
     26 H9           2.1660    18.9280    11.5230 ha         1 KYR       0.116000
     27 H10          4.1630    20.8240     9.9480 hc         1 KYR       0.045367
     28 H11          3.6160    20.9680    11.6270 hc         1 KYR       0.045367
     29 H12          5.3440    20.8640    11.2680 hc         1 KYR       0.045367
     30 C18          4.3560    20.4900    10.9740 c3         1 KYR      -0.051800
@<TRIPOS>BOND
     1     1    13 ar  
     2     1    14 ar  
     3     1    18 1   
     4     2    15 ar  
     5     2    16 ar  
     6     2    19 1   
     7     3    16 ar  
     8     3    17 ar  
     9     3    30 1   
    10     4    15 ar  
    11     4    17 ar  
    12     4    20 1   
    13     5     6 2   
    14     5    10 1   
    15     6     7 1   
    16     6    15 1   
    17     7     8 ar  
    18     7    14 ar  
    19     8     9 1   
    20     8    12 ar  
    21     9    10 1   
    22     9    21 1   
    23    10    11 2   
    24    12    13 ar  
    25    12    22 1   
    26    13    23 1   
    27    14    24 1   
    28    16    25 1   
    29    17    26 1   
    30    27    30 1   
    31    28    30 1   
    32    29    30 1   
@<TRIPOS>SUBSTRUCTURE
     1 KYR         1 TEMP              0 ****  ****    0 ROOT
