@<TRIPOS>MOLECULE
KYR
   30    32     1     0     0
SMALL
abcg2


@<TRIPOS>ATOM
      1 C10          1.2080    13.5720     9.1850 ca         1 KYR      -0.158000
      2 C13          5.3370    16.7700    11.0080 ca         1 KYR      -0.069500
      3 C15          4.2740    18.9420    11.0810 ca         1 KYR      -0.054300
      4 C17          2.9810    16.9260    11.4250 ca         1 KYR      -0.069500
      5 N01          4.9870    14.1350    12.1230 nc         1 KYR      -0.649100
      6 C02          4.0710    14.6690    11.3780 cd         1 KYR       0.619500
      7 C03          3.0620    13.8920    10.6960 ca         1 KYR      -0.264900
      8 C04          3.0520    12.5170    10.9760 ca         1 KYR       0.116600
      9 N05          4.0110    12.0240    11.8120 ns         1 KYR      -0.513600
     10 C06          5.0270    12.7750    12.3470 c          1 KYR       0.696400
     11 O07          5.9100    12.2590    13.0070 o          1 KYR      -0.517000
     12 C08          2.0980    11.6780    10.3930 ca         1 KYR      -0.177000
     13 C09          1.1850    12.2110     9.5110 ca         1 KYR      -0.040000
     14 C11          2.1380    14.3990     9.7700 ca         1 KYR      -0.028000
     15 C12          4.1170    16.1400    11.2470 ca         1 KYR      -0.157900
     16 C14          5.4090    18.1490    10.9140 ca         1 KYR      -0.120000
     17 C16          3.0640    18.3080    11.3510 ca         1 KYR      -0.120000
     18 H1           0.5010    13.9690     8.4700 ha         1 KYR       0.123000
     19 H2           6.2330    16.1750    10.8830 ha         1 KYR       0.124500
     20 H3           2.0280    16.4660    11.6560 ha         1 KYR       0.124500
     21 H4           4.0150    11.0330    12.0140 hn         1 KYR       0.447000
     22 H5           2.0930    10.6210    10.6280 ha         1 KYR       0.124000
     23 H6           0.4490    11.5620     9.0540 ha         1 KYR       0.118000
     24 H7           2.1630    15.4450     9.5000 ha         1 KYR       0.128000
     25 H8           6.3640    18.6180    10.7130 ha         1 KYR       0.116000
     26 H9           2.1720    18.9010    11.5100 ha         1 KYR       0.116000
     27 H10          4.2000    20.7430     9.9180 hc         1 KYR       0.045367
     28 H11          3.5880    20.9270    11.5550 hc         1 KYR       0.045367
     29 H12          5.3260    20.8120    11.2640 hc         1 KYR       0.045367
     30 C18          4.3520    20.4340    10.9550 c3         1 KYR      -0.051800
@<TRIPOS>BOND
     1     1    13 ar  
     2     1    14 ar  
     3     1    18 1   
     4     2    15 ar  
     5     2    16 ar  
     6     2    19 1   
     7     3    16 ar  
     8     3    17 ar  
     9     3    30 1   
    10     4    15 ar  
    11     4    17 ar  
    12     4    20 1   
    13     5     6 2   
    14     5    10 1   
    15     6     7 1   
    16     6    15 1   
    17     7     8 ar  
    18     7    14 ar  
    19     8     9 1   
    20     8    12 ar  
    21     9    10 1   
    22     9    21 1   
    23    10    11 2   
    24    12    13 ar  
    25    12    22 1   
    26    13    23 1   
    27    14    24 1   
    28    16    25 1   
    29    17    26 1   
    30    27    30 1   
    31    28    30 1   
    32    29    30 1   
@<TRIPOS>SUBSTRUCTURE
     1 KYR         1 TEMP              0 ****  ****    0 ROOT
