@<TRIPOS>MOLECULE
KYU
   31    32     1     0     0
SMALL
No Charge or Current Charge


@<TRIPOS>ATOM
      1 N1           8.7030     0.8990    21.4210 ns         1 KYU      -0.152000
      2 C4           7.0800     2.3480    20.1860 ca         1 KYU       0.356900
      3 C5           7.8300     1.1520    20.3220 ca         1 KYU      -0.113000
      4 C6           9.1600     1.6980    22.4650 c          1 KYU       0.567100
      5 C7          10.1150     0.9690    23.4580 c3         1 KYU       0.152300
      6 C8          10.8810    -0.1730    22.7620 ca         1 KYU      -0.153300
      7 C10         12.7020    -0.9150    21.3040 ca         1 KYU      -0.104000
      8 C13         10.4350    -1.5130    22.8520 ca         1 KYU      -0.072000
      9 F            9.3900     0.5040    24.5050 f          1 KYU      -0.102000
     10 C9          12.0200     0.1140    21.9780 ca         1 KYU      -0.057000
     11 N            6.2470     2.5890    19.1470 nb         1 KYU      -0.654000
     12 C12         11.1170    -2.5370    22.1740 ca         1 KYU       0.116000
     13 C1           7.6970     0.1620    19.3230 ca         1 KYU      -0.038300
     14 C11         12.2500    -2.2410    21.4010 ca         1 KYU      -0.079000
     15 C            8.4680    -1.1540    19.3900 c3         1 KYU      -0.053800
     16 C2           6.8310     0.4220    18.2470 ca         1 KYU      -0.159000
     17 O            8.8400     2.8760    22.5970 o          1 KYU      -0.541100
     18 C3           6.1320     1.6370    18.1960 ca         1 KYU       0.339900
     19 F1          10.9890     1.8570    23.9930 f          1 KYU      -0.102000
     20 Cl          10.5410    -4.1950    22.2860 cl         1 KYU      -0.200000
     21 H1           9.0740    -0.0430    21.4380 hn         1 KYU       0.172000
     22 H2           7.1260     3.1420    20.9270 h4         1 KYU       0.032100
     23 H3          13.5780    -0.6820    20.7020 ha         1 KYU       0.127000
     24 H4           9.5540    -1.7690    23.4360 ha         1 KYU       0.134000
     25 H5          12.3790     1.1380    21.8820 ha         1 KYU       0.141000
     26 H6          12.7740    -3.0370    20.8770 ha         1 KYU       0.135000
     27 H7           9.5500    -0.9790    19.4280 hc         1 KYU       0.052033
     28 H8           8.1870    -1.7320    20.2790 hc         1 KYU       0.052033
     29 H9           8.2700    -1.7850    18.5150 hc         1 KYU       0.052033
     30 H10          6.6940    -0.3060    17.4510 ha         1 KYU       0.126000
     31 H11          5.4560     1.8540    17.3690 h4         1 KYU       0.024100
@<TRIPOS>BOND
     1     1     3 1   
     2     1     4 1   
     3     1    21 1   
     4     2     3 ar  
     5     2    11 ar  
     6     2    22 1   
     7     3    13 ar  
     8     4     5 1   
     9     4    17 2   
    10     5     6 1   
    11     5     9 1   
    12     5    19 1   
    13     6     8 ar  
    14     6    10 ar  
    15     7    10 ar  
    16     7    14 ar  
    17     7    23 1   
    18     8    12 ar  
    19     8    24 1   
    20    10    25 1   
    21    11    18 ar  
    22    12    14 ar  
    23    12    20 1   
    24    13    15 1   
    25    13    16 ar  
    26    14    26 1   
    27    15    27 1   
    28    15    28 1   
    29    15    29 1   
    30    16    18 ar  
    31    16    30 1   
    32    18    31 1   
@<TRIPOS>SUBSTRUCTURE
     1 KYU         1 TEMP              0 ****  ****    0 ROOT
