@<TRIPOS>MOLECULE
KYU
   31    32     1     0     0
SMALL
abcg2


@<TRIPOS>ATOM
      1 N1           8.4770    -0.1350    20.8440 ns         1 KYU      -0.152000
      2 C4           8.4470     0.9990    18.6950 ca         1 KYU       0.356900
      3 C5           7.7540     0.4330    19.7570 ca         1 KYU      -0.113000
      4 C6           9.1640     0.6120    21.7270 c          1 KYU       0.567100
      5 C7           9.8340    -0.1870    22.8740 c3         1 KYU       0.152300
      6 C8          11.2930    -0.4440    22.6050 ca         1 KYU      -0.153300
      7 C10         13.6040     0.1790    22.8230 ca         1 KYU      -0.104000
      8 C13         11.6500    -1.5270    21.8040 ca         1 KYU      -0.072000
      9 F            9.1710    -1.3780    23.0640 f          1 KYU      -0.102000
     10 C9          12.2640     0.4150    23.1100 ca         1 KYU      -0.057000
     11 N            7.8450     1.5750    17.6540 nb         1 KYU      -0.654000
     12 C12         12.9920    -1.7440    21.5370 ca         1 KYU       0.116000
     13 C1           6.3570     0.4080    19.7490 ca         1 KYU      -0.038300
     14 C11         13.9790    -0.9000    22.0340 ca         1 KYU      -0.079000
     15 C            5.5720    -0.2530    20.8410 c3         1 KYU      -0.053800
     16 C2           5.7390     1.0000    18.6490 ca         1 KYU      -0.159000
     17 O            9.3280     1.8180    21.6730 o          1 KYU      -0.541100
     18 C3           6.5080     1.5800    17.6510 ca         1 KYU       0.339900
     19 F1           9.6650     0.5300    24.0220 f          1 KYU      -0.102000
     20 CL          13.4530    -3.1160    20.5550 cl         1 KYU      -0.200000
     21 H1           8.3730    -1.1230    21.0270 hn         1 KYU       0.172000
     22 H2           9.5310     0.9880    18.7020 h4         1 KYU       0.032100
     23 H3          14.3630     0.8350    23.2280 ha         1 KYU       0.127000
     24 H4          10.9010    -2.1970    21.4070 ha         1 KYU       0.134000
     25 H5          11.9790     1.2560    23.7260 ha         1 KYU       0.141000
     26 H6          15.0190    -1.0910    21.8100 ha         1 KYU       0.135000
     27 H7           5.8820    -1.2920    20.9750 hc         1 KYU       0.052033
     28 H8           5.7300     0.2550    21.7960 hc         1 KYU       0.052033
     29 H9           4.5080    -0.2360    20.6130 hc         1 KYU       0.052033
     30 H10          4.6590     1.0040    18.5690 ha         1 KYU       0.126000
     31 H11          6.0280     2.0360    16.7910 h4         1 KYU       0.024100
@<TRIPOS>BOND
     1     1     3 1   
     2     1     4 1   
     3     1    21 1   
     4     2     3 ar  
     5     2    11 ar  
     6     2    22 1   
     7     3    13 ar  
     8     4     5 1   
     9     4    17 2   
    10     5     6 1   
    11     5     9 1   
    12     5    19 1   
    13     6     8 ar  
    14     6    10 ar  
    15     7    10 ar  
    16     7    14 ar  
    17     7    23 1   
    18     8    12 ar  
    19     8    24 1   
    20    10    25 1   
    21    11    18 ar  
    22    12    14 ar  
    23    12    20 1   
    24    13    15 1   
    25    13    16 ar  
    26    14    26 1   
    27    15    27 1   
    28    15    28 1   
    29    15    29 1   
    30    16    18 ar  
    31    16    30 1   
    32    18    31 1   
@<TRIPOS>SUBSTRUCTURE
     1 KYU         1 TEMP              0 ****  ****    0 ROOT
