@<TRIPOS>MOLECULE
KYV
   62    67     1     0     0
SMALL
No Charge or Current Charge


@<TRIPOS>ATOM
      1 N1          -2.2300     2.5460    -0.0030 n          1 KYV      -0.409800
      2 N3          -6.6830    -0.1380     0.3420 na         1 KYV      -0.347600
      3 C3           5.9720    -3.3190    -1.6670 ca         1 KYV      -0.142000
      4 N4          -5.1430    -1.7290    -0.3280 nc         1 KYV      -0.649100
      5 N2          -4.3500     0.5040     0.0540 nh         1 KYV      -0.734600
      6 C9           2.9720     2.6020    -0.0660 ca         1 KYV      -0.065300
      7 C1           5.8560    -2.2040     0.5360 ca         1 KYV      -0.150600
      8 C2           6.1070    -3.3580    -0.2580 ca         1 KYV      -0.061000
      9 C10          2.5400     2.6120     1.2730 ca         1 KYV      -0.104000
     10 C4           5.5840    -2.1360    -2.3280 ca         1 KYV      -0.038000
     11 C5           5.3390    -1.0070    -1.5370 ca         1 KYV      -0.170800
     12 C6           4.9320     0.3370    -1.8810 cc         1 KYV       0.061900
     13 C7           4.8430     1.0310    -0.6890 cd         1 KYV      -0.001100
     14 C12          0.2120     2.8440     0.5500 ca         1 KYV      -0.146600
     15 C11          1.1740     2.7410     1.5780 ca         1 KYV      -0.076500
     16 O2          -1.5800     3.5950     1.9300 o          1 KYV      -0.594100
     17 C13         -1.2510     3.0030     0.9090 c          1 KYV       0.619700
     18 C24         -2.0720     1.2680    -0.7570 c6         1 KYV       0.088000
     19 C23         -2.9220     0.1130    -0.1560 c6         1 KYV       0.192300
     20 C16         -5.3650    -0.4550     0.0260 cd         1 KYV       0.653700
     21 C22         -6.4150    -2.2680    -0.2230 ca         1 KYV       0.103400
     22 C21         -6.8130    -3.5900    -0.4700 ca         1 KYV      -0.068000
     23 C20         -8.1740    -3.9290    -0.3000 ca         1 KYV      -0.126000
     24 C19         -9.1080    -2.9490     0.1110 ca         1 KYV      -0.108000
     25 C18         -8.6870    -1.6250     0.3540 ca         1 KYV      -0.111000
     26 C17         -7.3300    -1.3300     0.1740 ca         1 KYV      -0.085200
     27 C15         -4.5180     1.8030     0.7760 c6         1 KYV       0.192300
     28 C14         -3.6620     2.9290     0.1390 c6         1 KYV       0.088000
     29 C25          0.6550     2.8550    -0.7930 ca         1 KYV      -0.076500
     30 C26          2.0220     2.7270    -1.0960 ca         1 KYV      -0.104000
     31 O3           5.1700     0.1910     0.3470 os         1 KYV      -0.134200
     32 C27          5.4710    -1.0430    -0.1610 ca         1 KYV       0.125100
     33 O            5.7850    -1.2310     2.7390 o          1 KYV      -0.585100
     34 N            6.3590    -3.3640     2.6400 nt         1 KYV      -0.607000
     35 H1          -7.0510     0.7620     0.6060 hn         1 KYV       0.354000
     36 H2           6.1710    -4.2160    -2.2500 ha         1 KYV       0.120000
     37 H4           4.6980     3.0810    -1.2660 hc         1 KYV       0.074700
     38 H5           5.0620     2.8420     0.4220 hc         1 KYV       0.074700
     39 H6           6.4100    -4.2950     0.2010 ha         1 KYV       0.117000
     40 H7           3.2620     2.5180     2.0800 ha         1 KYV       0.124500
     41 H8           5.4810    -2.1120    -3.4100 ha         1 KYV       0.118000
     42 H10          0.8610     2.7490     2.6210 ha         1 KYV       0.123500
     43 H11         -2.3800     1.4320    -1.8000 h1         1 KYV       0.068700
     44 H12         -1.0250     0.9400    -0.7750 h1         1 KYV       0.068700
     45 H13         -2.4790    -0.1860     0.8060 h1         1 KYV       0.056950
     46 H14         -2.8380    -0.7510    -0.8300 h1         1 KYV       0.056950
     47 H15         -6.0880    -4.3360    -0.7850 ha         1 KYV       0.125000
     48 H16         -8.5050    -4.9480    -0.4860 ha         1 KYV       0.111000
     49 H17        -10.1550    -3.2170     0.2390 ha         1 KYV       0.111000
     50 H18         -9.3940    -0.8610     0.6700 ha         1 KYV       0.114000
     51 H19         -5.5650     2.1350     0.7750 h1         1 KYV       0.056950
     52 H20         -4.2190     1.6820     1.8280 h1         1 KYV       0.056950
     53 H21         -3.7610     3.8470     0.7350 h1         1 KYV       0.068700
     54 H22         -4.0630     3.1550    -0.8590 h1         1 KYV       0.068700
     55 H23         -0.0540     2.9790    -1.6080 ha         1 KYV       0.123500
     56 H24          2.3430     2.7280    -2.1350 ha         1 KYV       0.124500
     57 H25          6.5360    -4.1890     2.0900 hn         1 KYV       0.316000
     58 H26          6.4540    -3.3860     3.6440 hn         1 KYV       0.316000
     59 H3           4.8610    -0.0250    -3.7310 ho         1 KYV       0.467000
     60 C8           4.4500     2.4540    -0.4000 c3         1 KYV       0.043100
     61 C            5.9900    -2.2090     2.0410 c          1 KYV       0.624700
     62 O1           4.6970     0.7430    -3.1440 oh         1 KYV      -0.515100
@<TRIPOS>BOND
     1     1    17 1   
     2     1    18 1   
     3     1    28 1   
     4     2    20 1   
     5     2    26 1   
     6     2    35 1   
     7     3     8 ar  
     8     3    10 ar  
     9     3    36 1   
    10     4    20 2   
    11     4    21 1   
    12     5    19 1   
    13     5    20 1   
    14     5    27 1   
    15     6     9 ar  
    16     6    30 ar  
    17     6    60 1   
    18     7     8 ar  
    19     7    32 ar  
    20     7    61 1   
    21     8    39 1   
    22     9    15 ar  
    23     9    40 1   
    24    10    11 ar  
    25    10    41 1   
    26    11    12 1   
    27    11    32 ar  
    28    12    13 2   
    29    12    62 1   
    30    13    31 1   
    31    13    60 1   
    32    14    15 ar  
    33    14    17 1   
    34    14    29 ar  
    35    15    42 1   
    36    16    17 2   
    37    18    19 1   
    38    18    43 1   
    39    18    44 1   
    40    19    45 1   
    41    19    46 1   
    42    21    22 ar  
    43    21    26 ar  
    44    22    23 ar  
    45    22    47 1   
    46    23    24 ar  
    47    23    48 1   
    48    24    25 ar  
    49    24    49 1   
    50    25    26 ar  
    51    25    50 1   
    52    27    28 1   
    53    27    51 1   
    54    27    52 1   
    55    28    53 1   
    56    28    54 1   
    57    29    30 ar  
    58    29    55 1   
    59    30    56 1   
    60    31    32 1   
    61    33    61 2   
    62    34    57 1   
    63    34    58 1   
    64    34    61 1   
    65    37    60 1   
    66    38    60 1   
    67    59    62 1   
@<TRIPOS>SUBSTRUCTURE
     1 KYV         1 TEMP              0 ****  ****    0 ROOT
