@<TRIPOS>MOLECULE
KYV
   62    67     1     0     0
SMALL
bcc


@<TRIPOS>ATOM
      1 N1          -2.1020     2.5740    -0.0490 n          1 KYV      -0.476800
      2 N3          -6.2250    -0.3300     0.4550 na         1 KYV      -0.297300
      3 C3           5.6340    -3.2540    -1.6620 ca         1 KYV      -0.160000
      4 N4          -4.6330    -1.7560    -0.1750 nc         1 KYV      -0.649100
      5 N2          -4.0350     0.5210     0.0310 nh         1 KYV      -0.734600
      6 C9           3.0090     2.7010    -0.1110 ca         1 KYV      -0.065300
      7 C1           4.9570    -2.2350     0.4490 ca         1 KYV      -0.150600
      8 C2           5.2960    -3.3520    -0.3100 ca         1 KYV      -0.079000
      9 C10          2.5130     2.6270     1.1870 ca         1 KYV      -0.122000
     10 C4           5.6380    -2.0320    -2.3100 ca         1 KYV      -0.056000
     11 C5           5.3040    -0.8990    -1.5710 ca         1 KYV      -0.170800
     12 C6           5.1760     0.5020    -1.8650 cc         1 KYV       0.061900
     13 C7           4.8060     1.1090    -0.7140 cd         1 KYV      -0.001100
     14 C12          0.2670     2.9670     0.3860 ca         1 KYV      -0.146600
     15 C11          1.1580     2.7750     1.4370 ca         1 KYV      -0.094500
     16 O2          -1.4700     4.0260     1.5650 o          1 KYV      -0.594100
     17 C13         -1.1740     3.2190     0.6940 c          1 KYV       0.686700
     18 C24         -1.8860     1.3470    -0.7950 c6         1 KYV       0.088000
     19 C23         -2.6310     0.1920    -0.1460 c6         1 KYV       0.192300
     20 C16         -4.9170    -0.5070     0.1080 cd         1 KYV       0.653700
     21 C22         -5.8170    -2.4390    -0.0250 ca         1 KYV       0.103400
     22 C21         -6.1070    -3.7880    -0.2020 ca         1 KYV      -0.086000
     23 C20         -7.4090    -4.2150     0.0260 ca         1 KYV      -0.144000
     24 C19         -8.4100    -3.3230     0.4210 ca         1 KYV      -0.126000
     25 C18         -8.1390    -1.9710     0.6030 ca         1 KYV      -0.129000
     26 C17         -6.8380    -1.5590     0.3730 ca         1 KYV      -0.085200
     27 C15         -4.2680     1.7590     0.7560 c6         1 KYV       0.192300
     28 C14         -3.5090     2.8940     0.0920 c6         1 KYV       0.088000
     29 C25          0.7590     3.0460    -0.9150 ca         1 KYV      -0.094500
     30 C26          2.1170     2.9180    -1.1570 ca         1 KYV      -0.122000
     31 O3           4.6740     0.1880     0.2920 os         1 KYV      -0.134200
     32 C27          4.9830    -1.0140    -0.2170 ca         1 KYV       0.125100
     33 O            4.9670    -1.4290     2.6780 o          1 KYV      -0.585100
     34 N            3.9910    -3.4270     2.2880 nt         1 KYV      -0.674000
     35 H1          -6.6840     0.5340     0.6910 hn         1 KYV       0.303700
     36 H2           5.8960    -4.1520    -2.2040 ha         1 KYV       0.138000
     37 H4           4.7860     3.1420    -1.2300 hc         1 KYV       0.074700
     38 H5           5.0680     2.8450     0.4750 hc         1 KYV       0.074700
     39 H6           5.3210    -4.3280     0.1590 ha         1 KYV       0.135000
     40 H7           3.1940     2.4660     2.0140 ha         1 KYV       0.142500
     41 H8           5.8880    -1.9650    -3.3610 ha         1 KYV       0.136000
     42 H10          0.7940     2.7340     2.4550 ha         1 KYV       0.141500
     43 H11         -2.2320     1.4840    -1.8230 h1         1 KYV       0.068700
     44 H12         -0.8310     1.0930    -0.8300 h1         1 KYV       0.068700
     45 H13         -2.1660    -0.0480     0.8190 h1         1 KYV       0.056950
     46 H14         -2.5470    -0.6860    -0.7820 h1         1 KYV       0.056950
     47 H15         -5.3360    -4.4850    -0.5070 ha         1 KYV       0.143000
     48 H16         -7.6550    -5.2610    -0.1050 ha         1 KYV       0.129000
     49 H17         -9.4150    -3.6890     0.5890 ha         1 KYV       0.129000
     50 H18         -8.9140    -1.2790     0.9070 ha         1 KYV       0.132000
     51 H19         -5.3250     2.0230     0.7440 h1         1 KYV       0.056950
     52 H20         -3.9610     1.6620     1.8040 h1         1 KYV       0.056950
     53 H21         -3.6270     3.8030     0.6740 h1         1 KYV       0.068700
     54 H22         -3.9230     3.0720    -0.9050 h1         1 KYV       0.068700
     55 H23          0.0860     3.2240    -1.7440 ha         1 KYV       0.141500
     56 H24          2.4870     2.9930    -2.1730 ha         1 KYV       0.142500
     57 H25          3.6190    -4.0880     1.6280 hn         1 KYV       0.316000
     58 H26          3.7510    -3.5590     3.2580 hn         1 KYV       0.316000
     59 H3           5.9820     0.6500    -3.5890 ho         1 KYV       0.428000
     60 C8           4.4820     2.5180    -0.3880 c3         1 KYV       0.043100
     61 C            4.6390    -2.3170     1.9050 c          1 KYV       0.691700
     62 O1           5.3310     1.1160    -3.0530 oh         1 KYV      -0.476100
@<TRIPOS>BOND
     1     1    17 1   
     2     1    18 1   
     3     1    28 1   
     4     2    20 1   
     5     2    26 1   
     6     2    35 1   
     7     3     8 ar  
     8     3    10 ar  
     9     3    36 1   
    10     4    20 2   
    11     4    21 1   
    12     5    19 1   
    13     5    20 1   
    14     5    27 1   
    15     6     9 ar  
    16     6    30 ar  
    17     6    60 1   
    18     7     8 ar  
    19     7    32 ar  
    20     7    61 1   
    21     8    39 1   
    22     9    15 ar  
    23     9    40 1   
    24    10    11 ar  
    25    10    41 1   
    26    11    12 1   
    27    11    32 ar  
    28    12    13 2   
    29    12    62 1   
    30    13    31 1   
    31    13    60 1   
    32    14    15 ar  
    33    14    17 1   
    34    14    29 ar  
    35    15    42 1   
    36    16    17 2   
    37    18    19 1   
    38    18    43 1   
    39    18    44 1   
    40    19    45 1   
    41    19    46 1   
    42    21    22 ar  
    43    21    26 ar  
    44    22    23 ar  
    45    22    47 1   
    46    23    24 ar  
    47    23    48 1   
    48    24    25 ar  
    49    24    49 1   
    50    25    26 ar  
    51    25    50 1   
    52    27    28 1   
    53    27    51 1   
    54    27    52 1   
    55    28    53 1   
    56    28    54 1   
    57    29    30 ar  
    58    29    55 1   
    59    30    56 1   
    60    31    32 1   
    61    33    61 2   
    62    34    57 1   
    63    34    58 1   
    64    34    61 1   
    65    37    60 1   
    66    38    60 1   
    67    59    62 1   
@<TRIPOS>SUBSTRUCTURE
     1 KYV         1 TEMP              0 ****  ****    0 ROOT
