@<TRIPOS>MOLECULE
KYW
   57    60     1     0     0
SMALL
No Charge or Current Charge


@<TRIPOS>ATOM
      1 N1         -13.6590    23.6450   -37.3050 nb         1 KYW      -0.324000
      2 N3         -14.9650    21.6150   -37.2020 nb         1 KYW      -0.187000
      3 C4         -14.5990    21.4700   -35.9160 ca         1 KYW       0.063500
      4 C5         -13.7760    22.3680   -35.2760 ca         1 KYW      -0.056600
      5 C6         -13.3010    23.4970   -36.0090 ca         1 KYW       0.426900
      6 C8         -14.2180    20.8200   -33.8140 cc         1 KYW       0.515700
      7 C22         -8.8950    25.0330   -31.7860 ca         1 KYW      -0.122000
      8 C24        -10.8240    26.2080   -32.6980 ca         1 KYW      -0.085000
      9 C26        -10.5390    23.8280   -33.1170 ca         1 KYW      -0.085000
     10 O1B        -14.2590    16.8970   -30.1780 o          1 KYW      -0.952833
     11 O2B        -14.6510    19.2700   -30.5540 o          1 KYW      -0.952833
     12 O3B        -14.6880    18.3260   -28.2770 o          1 KYW      -0.952833
     13 PA         -17.6600    19.0670   -30.0770 p5         1 KYW       1.434400
     14 O1A        -19.0890    18.7160   -29.8100 o          1 KYW      -0.875500
     15 O2A        -17.2430    20.2270   -29.2330 o          1 KYW      -0.875500
     16 C3A        -16.7020    17.5860   -29.8210 c3         1 KYW      -0.768400
     17 C9         -18.1000    18.4460   -32.6100 c3         1 KYW       0.212600
     18 C7         -17.1570    18.1770   -33.8140 c5         1 KYW       0.135300
     19 O4         -16.9180    19.3980   -34.5500 os         1 KYW      -0.374000
     20 C3         -15.7270    17.6570   -33.4720 c5         1 KYW       0.083300
     21 O3         -15.6640    16.2700   -33.0880 oh         1 KYW      -0.755000
     22 C2         -15.0160    17.9060   -34.8290 c5         1 KYW       0.125300
     23 O2         -15.3310    16.8180   -35.7080 oh         1 KYW      -0.722000
     24 C1         -15.6600    19.2800   -35.2550 c5         1 KYW       0.316300
     25 N9         -14.8830    20.4940   -35.0040 na         1 KYW      -0.302300
     26 N7         -13.5220    21.9690   -33.9560 nd         1 KYW      -0.595100
     27 N6         -12.4330    24.4960   -35.4870 nh         1 KYW      -0.773300
     28 C10        -14.4720    22.7030   -37.8290 ca         1 KYW       0.241000
     29 C23         -9.6330    26.2170   -31.9510 ca         1 KYW      -0.121000
     30 C25        -11.2860    25.0120   -33.2870 ca         1 KYW      -0.085300
     31 C27         -9.3490    23.8390   -32.3690 ca         1 KYW      -0.121000
     32 Cl2        -14.9280    22.9130   -39.5110 cl         1 KYW      -0.220000
     33 H8         -14.2750    20.2150   -32.9140 h5         1 KYW       0.225800
     34 H1         -10.7660    25.7940   -35.8170 h1         1 KYW       0.027033
     35 H2         -11.0500    24.6100   -37.1030 h1         1 KYW       0.027033
     36 H3         -12.1280    26.0260   -36.9380 h1         1 KYW       0.027033
     37 H5         -12.9820    26.0270   -34.1360 h1         1 KYW       0.093200
     38 H4         -13.3320    24.4290   -33.5400 h1         1 KYW       0.093200
     39 H23        -11.3860    27.1310   -32.8190 ha         1 KYW       0.120500
     40 H25        -10.8810    22.9000   -33.5690 ha         1 KYW       0.120500
     41 H3A2       -17.0100    17.1050   -28.8890 hc         1 KYW       0.022700
     42 H3A1       -16.8460    16.8760   -30.6360 hc         1 KYW       0.022700
     43 H5'2       -19.0280    18.9010   -32.9810 h1         1 KYW       0.040700
     44 H5'1       -18.3690    17.4820   -32.1580 h1         1 KYW       0.040700
     45 H10        -17.6670    17.4770   -34.4900 h1         1 KYW       0.048700
     46 H9         -15.2760    18.2830   -32.6980 h1         1 KYW       0.072700
     47 HO3        -15.3430    16.2620   -32.1470 ho         1 KYW       0.525000
     48 H7         -13.9280    17.9920   -34.7050 h1         1 KYW       0.051700
     49 HO2        -15.5360    16.0890   -35.0670 ho         1 KYW       0.510000
     50 H6         -15.8480    19.2660   -36.3360 h2         1 KYW       0.087700
     51 H22         -9.2840    27.1430   -31.5000 ha         1 KYW       0.098000
     52 H26         -8.7790    22.9200   -32.2430 ha         1 KYW       0.098000
     53 O5         -17.4580    19.3210   -31.6600 os         1 KYW      -0.562400
     54 C20        -11.5480    25.2750   -36.3850 c3         1 KYW       0.231100
     55 C21        -12.5830    25.0040   -34.0980 c3         1 KYW       0.259100
     56 H21         -7.9730    25.0410   -31.2090 ha         1 KYW       0.091000
     57 PB         -15.0080    18.0990   -29.7150 p5         1 KYW       1.378500
@<TRIPOS>BOND
     1     1     5 ar  
     2     1    28 ar  
     3     2     3 ar  
     4     2    28 ar  
     5     3     4 ar  
     6     3    25 1   
     7     4     5 ar  
     8     4    26 1   
     9     5    27 1   
    10     6    25 1   
    11     6    26 2   
    12     6    33 1   
    13     7    29 ar  
    14     7    31 ar  
    15     7    56 1   
    16     8    29 ar  
    17     8    30 ar  
    18     8    39 1   
    19     9    30 ar  
    20     9    31 ar  
    21     9    40 1   
    22    10    57 1   
    23    11    57 1   
    24    12    57 1   
    25    13    14 1   
    26    13    15 1   
    27    13    16 1   
    28    13    53 1   
    29    16    41 1   
    30    16    42 1   
    31    16    57 1   
    32    17    18 1   
    33    17    43 1   
    34    17    44 1   
    35    17    53 1   
    36    18    19 1   
    37    18    20 1   
    38    18    45 1   
    39    19    24 1   
    40    20    21 1   
    41    20    22 1   
    42    20    46 1   
    43    21    47 1   
    44    22    23 1   
    45    22    24 1   
    46    22    48 1   
    47    23    49 1   
    48    24    25 1   
    49    24    50 1   
    50    27    54 1   
    51    27    55 1   
    52    28    32 1   
    53    29    51 1   
    54    30    55 1   
    55    31    52 1   
    56    34    54 1   
    57    35    54 1   
    58    36    54 1   
    59    37    55 1   
    60    38    55 1   
@<TRIPOS>SUBSTRUCTURE
     1 KYW         1 TEMP              0 ****  ****    0 ROOT
