@<TRIPOS>MOLECULE
KYW
   57    60     1     0     0
SMALL
abcg2


@<TRIPOS>ATOM
      1 N1         -13.3310    23.5310   -36.9530 nb         1 KYW      -0.324000
      2 N3         -14.6700    21.5700   -37.0370 nb         1 KYW      -0.187000
      3 C4         -14.6860    21.6530   -35.7050 ca         1 KYW       0.063500
      4 C5         -14.0730    22.6180   -34.9150 ca         1 KYW      -0.056600
      5 C6         -13.3530    23.6200   -35.6120 ca         1 KYW       0.426900
      6 C8         -15.0570    21.2790   -33.5800 cc         1 KYW       0.515700
      7 C22         -8.6490    23.5800   -32.2510 ca         1 KYW      -0.122000
      8 C24        -10.3100    25.2940   -32.5480 ca         1 KYW      -0.085000
      9 C26        -10.7560    23.0600   -33.2940 ca         1 KYW      -0.085000
     10 O1B        -15.5310    20.9130   -28.2490 o          1 KYW      -0.952833
     11 O2B        -15.5250    20.5380   -30.7790 o          1 KYW      -0.952833
     12 O3B        -17.6770    21.3280   -29.6080 o          1 KYW      -0.952833
     13 PA         -18.0640    17.8170   -30.1230 p5         1 KYW       1.434400
     14 O1A        -17.8170    16.3380   -29.9250 o          1 KYW      -0.875500
     15 O2A        -19.4570    18.3530   -29.9170 o          1 KYW      -0.875500
     16 C3A        -16.8220    18.7470   -29.1620 c3         1 KYW      -0.768400
     17 C9         -16.4710    17.8340   -32.2410 c3         1 KYW       0.212600
     18 C7         -16.4990    17.9280   -33.7470 c5         1 KYW       0.135300
     19 O4         -16.8830    19.2400   -34.1660 os         1 KYW      -0.374000
     20 C3         -15.1270    17.7070   -34.3900 c5         1 KYW       0.083300
     21 O3         -14.7990    16.3740   -34.6540 oh         1 KYW      -0.755000
     22 C2         -15.2720    18.4770   -35.6990 c5         1 KYW       0.125300
     23 O2         -16.0330    17.7650   -36.6370 oh         1 KYW      -0.722000
     24 C1         -16.1220    19.6660   -35.2480 c5         1 KYW       0.316300
     25 N9         -15.3060    20.8060   -34.8410 na         1 KYW      -0.302300
     26 N7         -14.3200    22.3560   -33.5930 nd         1 KYW      -0.595100
     27 N6         -12.7000    24.6510   -35.0610 nh         1 KYW      -0.773300
     28 C10        -13.9720    22.5500   -37.5480 ca         1 KYW       0.241000
     29 C23         -9.0550    24.8970   -32.1000 ca         1 KYW      -0.121000
     30 C25        -11.1730    24.3830   -33.1470 ca         1 KYW      -0.085300
     31 C27         -9.5040    22.6620   -32.8510 ca         1 KYW      -0.121000
     32 CL2        -13.8650    22.5600   -39.2850 cl         1 KYW      -0.220000
     33 H8         -15.4300    20.8260   -32.6570 h5         1 KYW       0.225800
     34 H1         -11.5680    26.3680   -35.2920 h1         1 KYW       0.027033
     35 H2         -11.1000    25.0650   -36.3860 h1         1 KYW       0.027033
     36 H3         -12.5780    25.9840   -36.6870 h1         1 KYW       0.027033
     37 H5         -12.6960    25.8680   -33.3850 h1         1 KYW       0.093200
     38 H4         -13.3090    24.2490   -33.1100 h1         1 KYW       0.093200
     39 H23        -10.6210    26.3260   -32.4300 ha         1 KYW       0.120500
     40 H25        -11.4150    22.3310   -33.7510 ha         1 KYW       0.120500
     41 H3A2       -17.1790    18.6830   -28.1260 hc         1 KYW       0.022700
     42 H3A1       -15.8930    18.1660   -29.1740 hc         1 KYW       0.022700
     43 H5'2       -16.1880    16.8020   -31.9900 h1         1 KYW       0.040700
     44 H5'1       -15.7030    18.5020   -31.8400 h1         1 KYW       0.040700
     45 H10        -17.2160    17.2020   -34.1530 h1         1 KYW       0.048700
     46 H9         -14.3560    18.1960   -33.7770 h1         1 KYW       0.072700
     47 HO3        -14.6830    15.9020   -33.8240 ho         1 KYW       0.525000
     48 H7         -14.3060    18.7920   -36.1120 h1         1 KYW       0.051700
     49 HO2        -15.6970    16.8620   -36.6780 ho         1 KYW       0.510000
     50 H6         -16.7640    20.0140   -36.0630 h2         1 KYW       0.087700
     51 H22         -8.3960    25.6200   -31.6360 ha         1 KYW       0.098000
     52 H26         -9.1950    21.6310   -32.9690 ha         1 KYW       0.098000
     53 O5         -17.7320    18.1690   -31.7200 os         1 KYW      -0.562400
     54 C20        -11.9480    25.5580   -35.9090 c3         1 KYW       0.231100
     55 C21        -12.5370    24.8150   -33.6260 c3         1 KYW       0.259100
     56 H21         -7.6720    23.2670   -31.9040 ha         1 KYW       0.091000
     57 PB         -16.3680    20.5470   -29.4800 p5         1 KYW       1.378500
@<TRIPOS>BOND
     1     1     5 ar  
     2     1    28 ar  
     3     2     3 ar  
     4     2    28 ar  
     5     3     4 ar  
     6     3    25 1   
     7     4     5 ar  
     8     4    26 1   
     9     5    27 1   
    10     6    25 1   
    11     6    26 2   
    12     6    33 1   
    13     7    29 ar  
    14     7    31 ar  
    15     7    56 1   
    16     8    29 ar  
    17     8    30 ar  
    18     8    39 1   
    19     9    30 ar  
    20     9    31 ar  
    21     9    40 1   
    22    10    57 1   
    23    11    57 1   
    24    12    57 1   
    25    13    14 1   
    26    13    15 1   
    27    13    16 1   
    28    13    53 1   
    29    16    41 1   
    30    16    42 1   
    31    16    57 1   
    32    17    18 1   
    33    17    43 1   
    34    17    44 1   
    35    17    53 1   
    36    18    19 1   
    37    18    20 1   
    38    18    45 1   
    39    19    24 1   
    40    20    21 1   
    41    20    22 1   
    42    20    46 1   
    43    21    47 1   
    44    22    23 1   
    45    22    24 1   
    46    22    48 1   
    47    23    49 1   
    48    24    25 1   
    49    24    50 1   
    50    27    54 1   
    51    27    55 1   
    52    28    32 1   
    53    29    51 1   
    54    30    55 1   
    55    31    52 1   
    56    34    54 1   
    57    35    54 1   
    58    36    54 1   
    59    37    55 1   
    60    38    55 1   
@<TRIPOS>SUBSTRUCTURE
     1 KYW         1 TEMP              0 ****  ****    0 ROOT
