@<TRIPOS>MOLECULE
KYX
   50    52     1     0     0
SMALL
abcg2


@<TRIPOS>ATOM
      1 C13        -21.3880    -0.8560     0.0960 c3         1 KYX      -0.086100
      2 C15        -19.0470    -0.1090     0.5270 c3         1 KYX      -0.086100
      3 C17        -20.6170     1.3450    -6.2920 ca         1 KYX      -0.129500
      4 C20        -17.5280     4.5530   -11.7430 ca         1 KYX      -0.013000
      5 C21        -17.3160     4.6410   -13.1280 ca         1 KYX      -0.162000
      6 C22        -17.0520     3.5160   -13.8770 ca         1 KYX      -0.010000
      7 C24        -17.2230     2.2030   -11.8330 ca         1 KYX      -0.014200
      8 C02        -17.7540     3.3380    -9.5980 c          1 KYX       0.621700
      9 C04        -18.8820     2.0750    -7.8180 ca         1 KYX      -0.069000
     10 C05        -18.0530     2.3270    -6.7290 ca         1 KYX      -0.104000
     11 C06        -18.5170     2.1190    -5.4430 ca         1 KYX      -0.129500
     12 C07        -19.8040     1.6350    -5.1970 ca         1 KYX      -0.018000
     13 C09        -21.4350     1.4140    -3.3430 c          1 KYX       0.665100
     14 C11        -20.4750     1.2080    -0.9980 c3         1 KYX       0.120000
     15 C12        -20.1470    -0.2190    -0.5280 c3         1 KYX      -0.073000
     16 C14        -19.6540    -1.0830    -1.6870 c3         1 KYX      -0.086100
     17 C18        -20.1580     1.5770    -7.5790 ca         1 KYX      -0.104000
     18 C19        -17.5090     3.3470   -11.0660 ca         1 KYX      -0.185600
     19 C23        -16.9940     2.2820   -13.2200 ca         1 KYX      -0.242900
     20 C27        -16.7130     0.9440   -13.6050 cc         1 KYX       0.359800
     21 N08        -20.1670     1.4270    -3.8650 ns         1 KYX      -0.161000
     22 N10        -21.5190     1.3090    -1.9930 ns         1 KYX      -0.529900
     23 N25        -17.0670     0.8960   -11.5130 na         1 KYX      -0.066400
     24 N26        -16.7580     0.1440   -12.5730 nd         1 KYX      -0.511100
     25 O01        -17.3510     4.2310    -8.8760 o          1 KYX      -0.568100
     26 O16        -22.4390     1.5010    -4.0380 o          1 KYX      -0.633100
     27 H1         -21.7610    -0.2600     0.9320 hc         1 KYX       0.037256
     28 H2         -22.1970    -0.9610    -0.6290 hc         1 KYX       0.037256
     29 H3         -21.1580    -1.8530     0.4760 hc         1 KYX       0.037256
     30 H4         -19.3650     0.5020     1.3750 hc         1 KYX       0.037256
     31 H5         -18.7830    -1.0960     0.9120 hc         1 KYX       0.037256
     32 H6         -18.1400     0.3380     0.1140 hc         1 KYX       0.037256
     33 H7         -21.6080     0.9420    -6.1580 ha         1 KYX       0.128500
     34 H9         -17.3630     5.6100   -13.6050 ha         1 KYX       0.122000
     35 H10        -16.8850     3.5830   -14.9440 ha         1 KYX       0.122000
     36 H11        -17.0420     2.6820    -6.8670 ha         1 KYX       0.123500
     37 H12        -17.8580     2.3380    -4.6100 ha         1 KYX       0.128500
     38 H13        -19.5640     1.7010    -1.3480 h1         1 KYX       0.044200
     39 H14        -20.8000     1.7930    -0.1340 h1         1 KYX       0.044200
     40 H15        -19.4070    -2.0860    -1.3320 hc         1 KYX       0.037256
     41 H16        -20.4120    -1.1930    -2.4650 hc         1 KYX       0.037256
     42 H17        -18.7540    -0.6680    -2.1460 hc         1 KYX       0.037256
     43 H18        -20.8140     1.3580    -8.4130 ha         1 KYX       0.123500
     44 H19        -16.4820     0.5650   -14.5890 h4         1 KYX       0.052800
     45 H21        -19.3930     1.4390    -3.2200 hn         1 KYX       0.149000
     46 H22        -22.4670     1.3000    -1.6530 hn         1 KYX       0.329500
     47 H23        -17.1010     0.4690   -10.6010 hn         1 KYX       0.383000
     48 N03        -18.4670     2.2690    -9.1490 ns         1 KYX      -0.154000
     49 H8         -17.7310     5.4590   -11.1880 ha         1 KYX       0.133000
     50 H20        -18.9810     1.7400    -9.8390 hn         1 KYX       0.151000
@<TRIPOS>BOND
     1     1    15 1   
     2     1    27 1   
     3     1    28 1   
     4     1    29 1   
     5     2    15 1   
     6     2    30 1   
     7     2    31 1   
     8     2    32 1   
     9     3    12 ar  
    10     3    17 ar  
    11     3    33 1   
    12     4     5 ar  
    13     4    18 ar  
    14     4    49 1   
    15     5     6 ar  
    16     5    34 1   
    17     6    19 ar  
    18     6    35 1   
    19     7    18 ar  
    20     7    19 ar  
    21     7    23 1   
    22     8    18 1   
    23     8    25 2   
    24     8    48 1   
    25     9    10 ar  
    26     9    17 ar  
    27     9    48 1   
    28    10    11 ar  
    29    10    36 1   
    30    11    12 ar  
    31    11    37 1   
    32    12    21 1   
    33    13    21 1   
    34    13    22 1   
    35    13    26 2   
    36    14    15 1   
    37    14    22 1   
    38    14    38 1   
    39    14    39 1   
    40    15    16 1   
    41    16    40 1   
    42    16    41 1   
    43    16    42 1   
    44    17    43 1   
    45    19    20 1   
    46    20    24 2   
    47    20    44 1   
    48    21    45 1   
    49    22    46 1   
    50    23    24 1   
    51    23    47 1   
    52    48    50 1   
@<TRIPOS>SUBSTRUCTURE
     1 KYX         1 TEMP              0 ****  ****    0 ROOT
