@<TRIPOS>MOLECULE
KYX
   50    52     1     0     0
SMALL
No Charge or Current Charge


@<TRIPOS>ATOM
      1 C13        -20.7960    -1.2470    -0.0150 c3         1 KYX      -0.086100
      2 C15        -19.0000     0.4520     0.5000 c3         1 KYX      -0.086100
      3 C17        -20.8370     1.4400    -6.3740 ca         1 KYX      -0.129500
      4 C20        -16.4390     4.3390   -11.5750 ca         1 KYX      -0.013000
      5 C21        -16.2050     4.3600   -12.9710 ca         1 KYX      -0.162000
      6 C22        -16.6480     3.3020   -13.7880 ca         1 KYX      -0.010000
      7 C24        -17.5440     2.2100   -11.8170 ca         1 KYX      -0.014200
      8 C02        -17.3830     3.2940    -9.4730 c          1 KYX       0.621700
      9 C04        -18.9900     2.2950    -7.7310 ca         1 KYX      -0.069000
     10 C05        -18.2500     2.5180    -6.5510 ca         1 KYX      -0.104000
     11 C06        -18.8060     2.2090    -5.2970 ca         1 KYX      -0.129500
     12 C07        -20.1010     1.6700    -5.1930 ca         1 KYX      -0.018000
     13 C09        -21.7760     0.8220    -3.4350 c          1 KYX       0.665100
     14 C11        -20.8830     1.0830    -1.0580 c3         1 KYX       0.120000
     15 C12        -19.9520    -0.0830    -0.6020 c3         1 KYX      -0.073000
     16 C14        -19.0960    -0.6180    -1.7820 c3         1 KYX      -0.086100
     17 C18        -20.2820     1.7480    -7.6290 ca         1 KYX      -0.104000
     18 C19        -17.1340     3.2620   -10.9640 ca         1 KYX      -0.185600
     19 C23        -17.3140     2.2440   -13.1600 ca         1 KYX      -0.242900
     20 C27        -17.8370     1.0130   -13.6930 cc         1 KYX       0.359800
     21 N08        -20.5910     1.3840    -3.8900 ns         1 KYX      -0.161000
     22 N10        -21.8830     0.7010    -2.0690 ns         1 KYX      -0.529900
     23 N25        -18.1420     0.9850   -11.5630 na         1 KYX      -0.066400
     24 N26        -18.3370     0.2290   -12.7270 nd         1 KYX      -0.511100
     25 O01        -16.6440     3.9250    -8.7240 o          1 KYX      -0.568100
     26 O16        -22.6920     0.4440    -4.1480 o          1 KYX      -0.633100
     27 H1         -21.4250    -0.8960     0.8130 hc         1 KYX       0.037256
     28 H2         -21.4520    -1.6870    -0.7760 hc         1 KYX       0.037256
     29 H3         -20.1490    -2.0450     0.3680 hc         1 KYX       0.037256
     30 H4         -19.5670     0.8280     1.3600 hc         1 KYX       0.037256
     31 H5         -18.3280    -0.3370     0.8580 hc         1 KYX       0.037256
     32 H6         -18.3820     1.2740     0.1180 hc         1 KYX       0.037256
     33 H7         -21.8390     1.0250    -6.3440 ha         1 KYX       0.128500
     34 H9         -15.6760     5.1990   -13.4160 ha         1 KYX       0.122000
     35 H10        -16.4670     3.3020   -14.8610 ha         1 KYX       0.122000
     36 H11        -17.2410     2.9170    -6.5830 ha         1 KYX       0.123500
     37 H12        -18.2190     2.3880    -4.3980 ha         1 KYX       0.128500
     38 H13        -20.2770     1.9200    -1.4280 h1         1 KYX       0.044200
     39 H14        -21.4310     1.4570    -0.1830 h1         1 KYX       0.044200
     40 H15        -18.4030    -1.3960    -1.4390 hc         1 KYX       0.037256
     41 H16        -19.7250    -1.0600    -2.5640 hc         1 KYX       0.037256
     42 H17        -18.5010     0.1860    -2.2330 hc         1 KYX       0.037256
     43 H18        -20.8670     1.5630    -8.5270 ha         1 KYX       0.123500
     44 H19        -17.8700     0.6390   -14.7080 h4         1 KYX       0.052800
     45 H21        -19.9470     1.6300    -3.1510 hn         1 KYX       0.149000
     46 H22        -22.7500     0.2910    -1.7460 hn         1 KYX       0.329500
     47 H23        -18.3800     0.6000   -10.6500 hn         1 KYX       0.383000
     48 N03        -18.4880     2.5750    -9.0330 ns         1 KYX      -0.154000
     49 H8         -16.0900     5.1740   -10.9700 ha         1 KYX       0.133000
     50 H20        -19.0630     2.2110    -9.7790 hn         1 KYX       0.151000
@<TRIPOS>BOND
     1     1    15 1   
     2     1    27 1   
     3     1    28 1   
     4     1    29 1   
     5     2    15 1   
     6     2    30 1   
     7     2    31 1   
     8     2    32 1   
     9     3    12 ar  
    10     3    17 ar  
    11     3    33 1   
    12     4     5 ar  
    13     4    18 ar  
    14     4    49 1   
    15     5     6 ar  
    16     5    34 1   
    17     6    19 ar  
    18     6    35 1   
    19     7    18 ar  
    20     7    19 ar  
    21     7    23 1   
    22     8    18 1   
    23     8    25 2   
    24     8    48 1   
    25     9    10 ar  
    26     9    17 ar  
    27     9    48 1   
    28    10    11 ar  
    29    10    36 1   
    30    11    12 ar  
    31    11    37 1   
    32    12    21 1   
    33    13    21 1   
    34    13    22 1   
    35    13    26 2   
    36    14    15 1   
    37    14    22 1   
    38    14    38 1   
    39    14    39 1   
    40    15    16 1   
    41    16    40 1   
    42    16    41 1   
    43    16    42 1   
    44    17    43 1   
    45    19    20 1   
    46    20    24 2   
    47    20    44 1   
    48    21    45 1   
    49    22    46 1   
    50    23    24 1   
    51    23    47 1   
    52    48    50 1   
@<TRIPOS>SUBSTRUCTURE
     1 KYX         1 TEMP              0 ****  ****    0 ROOT
