@<TRIPOS>MOLECULE
KYY
   38    41     1     0     0
SMALL
No Charge or Current Charge


@<TRIPOS>ATOM
      1 C10          1.7400    -1.8020     0.8840 ca         1 KYY      -0.120000
      2 C11          2.9680    -1.5030     0.2700 ca         1 KYY      -0.037000
      3 C12          3.4350    -0.1710     0.1910 ca         1 KYY      -0.182500
      4 C14          2.6300     0.8520     0.7470 ca         1 KYY       0.189000
      5 C7          -1.5260    -1.0360     1.1190 cc         1 KYY      -0.018100
      6 C1          -4.1870     0.7850    -0.4490 ca         1 KYY      -0.151600
      7 O2          -2.2610     0.1450     1.0060 os         1 KYY      -0.133200
      8 C2          -5.0570     0.3050    -1.4680 ca         1 KYY      -0.058000
      9 C3          -4.9330    -1.0100    -1.9770 ca         1 KYY      -0.142000
     10 C4          -3.9440    -1.8810    -1.4850 ca         1 KYY      -0.037000
     11 C5          -3.1010    -1.3880    -0.4830 ca         1 KYY      -0.176800
     12 F            3.0160     2.1470     0.7020 f          1 KYY      -0.187000
     13 C13          4.7250     0.1090    -0.4590 cc         1 KYY       0.463000
     14 N4           5.3210     1.3260    -0.6190 na         1 KYY      -0.202700
     15 N3           6.5060     1.2010    -1.2670 nc         1 KYY      -0.204800
     16 N2           6.6170    -0.0790    -1.4920 nd         1 KYY      -0.044000
     17 N1           5.5360    -0.7760    -1.0060 nd         1 KYY      -0.393000
     18 C15          1.4040     0.5500     1.3600 ca         1 KYY      -0.133000
     19 C9           0.9510    -0.7780     1.4370 ca         1 KYY      -0.032300
     20 C6          -2.0140    -1.9680     0.2310 cd         1 KYY       0.075900
     21 O1          -1.5710    -3.2270     0.0280 oh         1 KYY      -0.513100
     22 C16         -3.2060    -0.1130     0.0230 ca         1 KYY       0.130100
     23 C           -4.3030     2.1880     0.1070 c          1 KYY       0.624700
     24 O           -3.5770     2.6310     0.9810 o          1 KYY      -0.582100
     25 N           -5.2670     2.9920    -0.3950 nt         1 KYY      -0.607000
     26 H1           1.3990    -2.8340     0.9270 ha         1 KYY       0.131000
     27 H2           3.5550    -2.3200    -0.1480 ha         1 KYY       0.147000
     28 H4          -0.5720    -0.4100     2.9250 hc         1 KYY       0.075700
     29 H5          -0.3500    -2.1000     2.5450 hc         1 KYY       0.075700
     30 H6          -5.8370     0.9380    -1.8810 ha         1 KYY       0.118000
     31 H7          -5.6110    -1.3520    -2.7560 ha         1 KYY       0.121000
     32 H8          -3.8460    -2.8930    -1.8740 ha         1 KYY       0.117000
     33 H9           4.9580     2.2190    -0.3100 hn         1 KYY       0.397000
     34 H10          0.8040     1.3560     1.7740 ha         1 KYY       0.141000
     35 H11         -5.8840     2.6570    -1.1180 hn         1 KYY       0.315500
     36 H12         -5.3580     3.9300    -0.0360 hn         1 KYY       0.315500
     37 H3          -2.1320    -3.6220    -0.6720 ho         1 KYY       0.471000
     38 C8          -0.3840    -1.1010     2.0940 c3         1 KYY       0.045100
@<TRIPOS>BOND
     1     1     2 ar  
     2     1    19 ar  
     3     1    26 1   
     4     2     3 ar  
     5     2    27 1   
     6     3     4 ar  
     7     3    13 1   
     8     4    12 1   
     9     4    18 ar  
    10     5     7 1   
    11     5    20 2   
    12     5    38 1   
    13     6     8 ar  
    14     6    22 ar  
    15     6    23 1   
    16     7    22 1   
    17     8     9 ar  
    18     8    30 1   
    19     9    10 ar  
    20     9    31 1   
    21    10    11 ar  
    22    10    32 1   
    23    11    20 1   
    24    11    22 ar  
    25    13    14 1   
    26    13    17 2   
    27    14    15 1   
    28    14    33 1   
    29    15    16 2   
    30    16    17 1   
    31    18    19 ar  
    32    18    34 1   
    33    19    38 1   
    34    20    21 1   
    35    21    37 1   
    36    23    24 2   
    37    23    25 1   
    38    25    35 1   
    39    25    36 1   
    40    28    38 1   
    41    29    38 1   
@<TRIPOS>SUBSTRUCTURE
     1 KYY         1 TEMP              0 ****  ****    0 ROOT
