@<TRIPOS>MOLECULE
KYY
   38    41     1     0     0
SMALL
bcc


@<TRIPOS>ATOM
      1 C10          1.5600    -1.6800     0.4740 ca         1 KYY      -0.138000
      2 C11          2.7000    -1.1910    -0.1300 ca         1 KYY      -0.055000
      3 C12          3.1870     0.0840     0.1770 ca         1 KYY      -0.182500
      4 C14          2.4750     0.8230     1.1100 ca         1 KYY       0.153900
      5 C7          -1.5450    -1.3720     1.1100 cc         1 KYY      -0.018100
      6 C1          -3.6840     0.7280    -0.7800 ca         1 KYY      -0.151600
      7 O2          -1.9260    -0.1230     0.6900 os         1 KYY      -0.133200
      8 C2          -4.7300     0.3080    -1.5960 ca         1 KYY      -0.076000
      9 C3          -5.0400    -1.0430    -1.7680 ca         1 KYY      -0.160000
     10 C4          -4.3150    -2.0300    -1.1240 ca         1 KYY      -0.055000
     11 C5          -3.2640    -1.6350    -0.2990 ca         1 KYY      -0.176800
     12 F            2.9080     2.0510     1.4350 f          1 KYY      -0.151900
     13 C13          4.3900     0.5660    -0.4820 cc         1 KYY       0.463000
     14 N4           5.0180     1.7350    -0.3160 na         1 KYY      -0.152400
     15 N3           6.0740     1.7760    -1.1080 nc         1 KYY      -0.204800
     16 N2           6.0950     0.6690    -1.7390 nd         1 KYY      -0.044000
     17 N1           5.0760    -0.1050    -1.3830 nd         1 KYY      -0.393000
     18 C15          1.3340     0.3520     1.7250 ca         1 KYY      -0.151000
     19 C9           0.8660    -0.9150     1.4100 ca         1 KYY      -0.032300
     20 C6          -2.3150    -2.3220     0.5330 cd         1 KYY       0.075900
     21 O1          -2.1720    -3.6470     0.7090 oh         1 KYY      -0.474100
     22 C16         -2.9590    -0.2790    -0.1510 ca         1 KYY       0.130100
     23 C           -3.3040     2.1640    -0.6310 c          1 KYY       0.691700
     24 O           -2.1380     2.4990    -0.4890 o          1 KYY      -0.582100
     25 N           -4.3220     3.0360    -0.6800 nt         1 KYY      -0.674000
     26 H1           1.2070    -2.6710     0.2180 ha         1 KYY       0.149000
     27 H2           3.2300    -1.7990    -0.8500 ha         1 KYY       0.165000
     28 H4          -0.6190    -0.8860     2.9580 hc         1 KYY       0.075700
     29 H5          -0.2560    -2.4850     2.3410 hc         1 KYY       0.075700
     30 H6          -5.3130     1.0420    -2.1380 ha         1 KYY       0.136000
     31 H7          -5.8580    -1.3160    -2.4200 ha         1 KYY       0.139000
     32 H8          -4.5640    -3.0740    -1.2630 ha         1 KYY       0.135000
     33 H9           4.8030     2.5180     0.2830 hn         1 KYY       0.346700
     34 H10          0.8220     0.9750     2.4470 ha         1 KYY       0.159000
     35 H11         -5.2830     2.7440    -0.6670 hn         1 KYY       0.315500
     36 H12         -4.1400     4.0240    -0.6040 hn         1 KYY       0.315500
     37 H3          -2.9580    -4.1130     0.4070 ho         1 KYY       0.432000
     38 C8          -0.3960    -1.4440     2.0450 c3         1 KYY       0.045100
@<TRIPOS>BOND
     1     1     2 ar  
     2     1    19 ar  
     3     1    26 1   
     4     2     3 ar  
     5     2    27 1   
     6     3     4 ar  
     7     3    13 1   
     8     4    12 1   
     9     4    18 ar  
    10     5     7 1   
    11     5    20 2   
    12     5    38 1   
    13     6     8 ar  
    14     6    22 ar  
    15     6    23 1   
    16     7    22 1   
    17     8     9 ar  
    18     8    30 1   
    19     9    10 ar  
    20     9    31 1   
    21    10    11 ar  
    22    10    32 1   
    23    11    20 1   
    24    11    22 ar  
    25    13    14 1   
    26    13    17 2   
    27    14    15 1   
    28    14    33 1   
    29    15    16 2   
    30    16    17 1   
    31    18    19 ar  
    32    18    34 1   
    33    19    38 1   
    34    20    21 1   
    35    21    37 1   
    36    23    24 2   
    37    23    25 1   
    38    25    35 1   
    39    25    36 1   
    40    28    38 1   
    41    29    38 1   
@<TRIPOS>SUBSTRUCTURE
     1 KYY         1 TEMP              0 ****  ****    0 ROOT
