@<TRIPOS>MOLECULE
KYZ
   46    48     1     0     0
SMALL
No Charge or Current Charge


@<TRIPOS>ATOM
      1 O3          -0.1830    -0.4620     1.6550 o          1 KYZ      -0.562100
      2 C4           2.6060     4.2820    -1.7090 c3         1 KYZ       0.152900
      3 C5           1.9920     1.1540     0.2550 ca         1 KYZ      -0.061000
      4 O4           6.3440    -1.1330     1.4870 o          1 KYZ      -0.530500
      5 C6          -0.3890     0.6020     1.0820 c          1 KYZ       0.621100
      6 N1          -2.0690     0.0030    -1.0500 nc         1 KYZ      -0.417300
      7 C7          -1.7870     1.2130     1.0280 c3         1 KYZ      -0.185700
      8 C8          -2.6780     0.5740    -0.0070 cd         1 KYZ       0.372900
      9 N2          -2.8240    -0.6010    -2.0290 ns         1 KYZ      -0.234900
     10 C9          -4.1950    -0.7100    -2.1140 c          1 KYZ       0.554600
     11 C10         -4.9230    -0.0470    -0.9770 ca         1 KYZ      -0.144600
     12 C11         -6.3330    -0.0420    -0.9320 ca         1 KYZ      -0.048000
     13 C12         -7.0040     0.6000     0.1190 ca         1 KYZ      -0.112000
     14 N3           5.1020    -2.4780    -0.2040 n7         1 KYZ      -0.854300
     15 C13         -6.2720     1.2450     1.1260 ca         1 KYZ      -0.080000
     16 C14         -4.8670     1.2440     1.0910 ca         1 KYZ      -0.105000
     17 C15         -4.1710     0.5890     0.0480 ca         1 KYZ      -0.117900
     18 O            4.1290    -2.2890     2.0920 o          1 KYZ      -0.530500
     19 C17          3.9120    -2.6260    -1.0660 c3         1 KYZ       0.177100
     20 C            4.0790    -0.0990     0.5350 ca         1 KYZ      -0.323500
     21 C16          2.6920     0.0340     0.7590 ca         1 KYZ      -0.023000
     22 C3           2.6960     2.1390    -0.4730 ca         1 KYZ       0.142100
     23 O1           1.9850     3.2250    -0.9540 os         1 KYZ      -0.361100
     24 C2           4.0830     2.0000    -0.6940 ca         1 KYZ      -0.199000
     25 C1           4.7710     0.8850    -0.1930 ca         1 KYZ       0.002000
     26 N            0.5910     1.3500     0.4420 ns         1 KYZ      -0.137000
     27 O2          -4.7510    -1.2890    -3.0370 o          1 KYZ      -0.538000
     28 H1           3.3870     4.7780    -1.1180 h1         1 KYZ       0.047700
     29 H2           3.0560     3.8910    -2.6310 h1         1 KYZ       0.047700
     30 H3           1.8620     5.0380    -1.9890 h1         1 KYZ       0.047700
     31 H4          -2.2280     1.0760     2.0190 hc         1 KYZ       0.080700
     32 H5          -1.7150     2.2810     0.7950 hc         1 KYZ       0.080700
     33 H6          -2.3180    -1.0320    -2.7990 hn         1 KYZ       0.356500
     34 H7          -6.9100    -0.5320    -1.7150 ha         1 KYZ       0.143000
     35 H8          -8.0920     0.6030     0.1490 ha         1 KYZ       0.124000
     36 H9           5.3230    -3.3800     0.2150 hn         1 KYZ       0.480000
     37 H10         -6.7940     1.7510     1.9360 ha         1 KYZ       0.120000
     38 H11         -4.3340     1.7630     1.8830 ha         1 KYZ       0.120000
     39 H12          3.0440    -2.9800    -0.4930 h1         1 KYZ       0.050367
     40 H13          3.6430    -1.6750    -1.5450 h1         1 KYZ       0.050367
     41 H14          4.1050    -3.3520    -1.8660 h1         1 KYZ       0.050367
     42 H15          2.1750    -0.7390     1.3210 ha         1 KYZ       0.170000
     43 H16          4.6440     2.7430    -1.2520 ha         1 KYZ       0.123000
     44 H17          5.8410     0.7870    -0.3760 ha         1 KYZ       0.139000
     45 H18          0.2480     2.2010     0.0150 hn         1 KYZ       0.167000
     46 S            4.9720    -1.5320     1.1650 sy         1 KYZ       1.146600
@<TRIPOS>BOND
     1     1     5 2   
     2     2    23 1   
     3     2    28 1   
     4     2    29 1   
     5     2    30 1   
     6     3    21 ar  
     7     3    22 ar  
     8     3    26 1   
     9     4    46 2   
    10     5     7 1   
    11     5    26 1   
    12     6     8 2   
    13     6     9 1   
    14     7     8 1   
    15     7    31 1   
    16     7    32 1   
    17     8    17 1   
    18     9    10 1   
    19     9    33 1   
    20    10    11 1   
    21    10    27 2   
    22    11    12 ar  
    23    11    17 ar  
    24    12    13 ar  
    25    12    34 1   
    26    13    15 ar  
    27    13    35 1   
    28    14    19 1   
    29    14    36 1   
    30    14    46 1   
    31    15    16 ar  
    32    15    37 1   
    33    16    17 ar  
    34    16    38 1   
    35    18    46 2   
    36    19    39 1   
    37    19    40 1   
    38    19    41 1   
    39    20    21 ar  
    40    20    25 ar  
    41    20    46 1   
    42    21    42 1   
    43    22    23 1   
    44    22    24 ar  
    45    24    25 ar  
    46    24    43 1   
    47    25    44 1   
    48    26    45 1   
@<TRIPOS>SUBSTRUCTURE
     1 KYZ         1 TEMP              0 ****  ****    0 ROOT
