@<TRIPOS>MOLECULE
KYZ
   46    48     1     0     0
SMALL
bcc


@<TRIPOS>ATOM
      1 O3          -0.0800    -0.4680     1.9930 o          1 KYZ      -0.562100
      2 C4           2.2090     4.1750    -1.4990 c3         1 KYZ       0.129700
      3 C5           1.7640     1.0470     0.3160 ca         1 KYZ       0.031600
      4 O4           6.1680    -1.2140     0.9670 o          1 KYZ      -0.601300
      5 C6          -0.4270     0.4940     1.3350 c          1 KYZ       0.688100
      6 N1          -2.0910    -0.5630    -0.4660 nc         1 KYZ      -0.417300
      7 C7          -1.8590     0.9900     1.3280 c3         1 KYZ      -0.185700
      8 C8          -2.6830     0.2950     0.2810 cd         1 KYZ       0.372900
      9 N2          -2.7950    -1.1990    -1.4070 ns         1 KYZ      -0.301900
     10 C9          -4.1170    -1.0580    -1.7010 c          1 KYZ       0.697100
     11 C10         -4.8060    -0.0800    -0.8590 ca         1 KYZ      -0.144600
     12 C11         -6.1650     0.1740    -1.0480 ca         1 KYZ      -0.066000
     13 C12         -6.8050     1.1020    -0.2530 ca         1 KYZ      -0.130000
     14 N3           4.5640    -2.6800    -0.2540 n7         1 KYZ      -0.799100
     15 C13         -6.0960     1.7840     0.7380 ca         1 KYZ      -0.098000
     16 C14         -4.7530     1.5390     0.9340 ca         1 KYZ      -0.123000
     17 C15         -4.0890     0.6010     0.1350 ca         1 KYZ      -0.117900
     18 O            4.1240    -2.1260     2.1210 o          1 KYZ      -0.601300
     19 C17          5.0330    -2.3530    -1.5940 c3         1 KYZ       0.177100
     20 C            3.8590    -0.1180     0.4520 ca         1 KYZ      -0.323500
     21 C16          2.4970    -0.0510     0.7370 ca         1 KYZ      -0.041000
     22 C3           2.4180     2.0730    -0.4060 ca         1 KYZ       0.142100
     23 O1           1.6370     3.0920    -0.7830 os         1 KYZ      -0.337900
     24 C2           3.7750     1.9840    -0.6760 ca         1 KYZ      -0.217000
     25 C1           4.5050     0.8850    -0.2450 ca         1 KYZ      -0.016000
     26 N            0.4020     1.2270     0.5500 ns         1 KYZ      -0.463100
     27 O2          -4.6450    -1.7050    -2.5940 o          1 KYZ      -0.613500
     28 H1           2.9780     4.6790    -0.9110 h1         1 KYZ       0.047700
     29 H2           2.6380     3.8460    -2.4480 h1         1 KYZ       0.047700
     30 H3           1.3990     4.8700    -1.6970 h1         1 KYZ       0.047700
     31 H4          -2.2870     0.8020     2.3160 hc         1 KYZ       0.080700
     32 H5          -1.9050     2.0700     1.1680 hc         1 KYZ       0.080700
     33 H6          -2.2550    -1.8610    -1.9470 hn         1 KYZ       0.356500
     34 H7          -6.7090    -0.3560    -1.8170 ha         1 KYZ       0.161000
     35 H8          -7.8580     1.3040    -0.3970 ha         1 KYZ       0.142000
     36 H9           3.6340    -3.0840    -0.2380 hn         1 KYZ       0.424800
     37 H10         -6.6040     2.5110     1.3570 ha         1 KYZ       0.138000
     38 H11         -4.2190     2.0760     1.7070 ha         1 KYZ       0.138000
     39 H12          4.4950    -1.5170    -2.0480 h1         1 KYZ       0.050367
     40 H13          6.0950    -2.1230    -1.5730 h1         1 KYZ       0.050367
     41 H14          4.8900    -3.2320    -2.2170 h1         1 KYZ       0.050367
     42 H15          2.0140    -0.8420     1.2870 ha         1 KYZ       0.188000
     43 H16          4.2850     2.7660    -1.2200 ha         1 KYZ       0.141000
     44 H17          5.5640     0.8360    -0.4570 ha         1 KYZ       0.157000
     45 H18         -0.0110     2.0210     0.0860 hn         1 KYZ       0.333500
     46 S            4.7570    -1.5610     0.9390 sy         1 KYZ       1.288200
@<TRIPOS>BOND
     1     1     5 2   
     2     2    23 1   
     3     2    28 1   
     4     2    29 1   
     5     2    30 1   
     6     3    21 ar  
     7     3    22 ar  
     8     3    26 1   
     9     4    46 2   
    10     5     7 1   
    11     5    26 1   
    12     6     8 2   
    13     6     9 1   
    14     7     8 1   
    15     7    31 1   
    16     7    32 1   
    17     8    17 1   
    18     9    10 1   
    19     9    33 1   
    20    10    11 1   
    21    10    27 2   
    22    11    12 ar  
    23    11    17 ar  
    24    12    13 ar  
    25    12    34 1   
    26    13    15 ar  
    27    13    35 1   
    28    14    19 1   
    29    14    36 1   
    30    14    46 1   
    31    15    16 ar  
    32    15    37 1   
    33    16    17 ar  
    34    16    38 1   
    35    18    46 2   
    36    19    39 1   
    37    19    40 1   
    38    19    41 1   
    39    20    21 ar  
    40    20    25 ar  
    41    20    46 1   
    42    21    42 1   
    43    22    23 1   
    44    22    24 ar  
    45    24    25 ar  
    46    24    43 1   
    47    25    44 1   
    48    26    45 1   
@<TRIPOS>SUBSTRUCTURE
     1 KYZ         1 TEMP              0 ****  ****    0 ROOT
