@<TRIPOS>MOLECULE
KZ0
   18    18     1     0     0
SMALL
No Charge or Current Charge


@<TRIPOS>ATOM
      1 N1         -19.0460    19.3780     9.6610 nb         1 KZ0      -0.182667
      2 C1         -20.6200    17.2060     9.3470 ca         1 KZ0       0.155300
      3 C2         -20.1980    19.4140     8.9550 ca         1 KZ0       0.155300
      4 C5         -20.6020    20.7410     8.3330 c3         1 KZ0       0.076967
      5 C3         -18.7390    18.1770    10.1990 ca         1 KZ0       0.155300
      6 N          -21.0220    18.3580     8.7670 nb         1 KZ0      -0.182667
      7 N2         -19.4890    17.0590    10.0730 nb         1 KZ0      -0.182667
      8 C          -21.5110    15.9850     9.1780 c3         1 KZ0       0.076967
      9 H1         -19.7130    21.3330     8.0840 h1         1 KZ0       0.093700
     10 H2         -21.1810    20.5740     7.4160 h1         1 KZ0       0.093700
     11 H4         -17.0410    17.0640    10.9460 h1         1 KZ0       0.093700
     12 H5         -16.7120    18.7890    10.6400 h1         1 KZ0       0.093700
     13 H7         -22.0500    16.0340     8.2230 h1         1 KZ0       0.093700
     14 H8         -20.9090    15.0670     9.1950 h1         1 KZ0       0.093700
     15 Cl1        -22.7480    15.8610    10.5070 cl         1 KZ0      -0.237000
     16 Cl3        -17.7450    18.4440    12.7730 cl         1 KZ0      -0.237000
     17 Cl2        -21.6290    21.7330     9.4630 cl         1 KZ0      -0.237000
     18 C4         -17.4580    18.0770    11.0130 c3         1 KZ0       0.076967
@<TRIPOS>BOND
     1     1     3 ar  
     2     1     5 ar  
     3     2     6 ar  
     4     2     7 ar  
     5     2     8 1   
     6     3     4 1   
     7     3     6 ar  
     8     4     9 1   
     9     4    10 1   
    10     4    17 1   
    11     5     7 ar  
    12     5    18 1   
    13     8    13 1   
    14     8    14 1   
    15     8    15 1   
    16    11    18 1   
    17    12    18 1   
    18    16    18 1   
@<TRIPOS>SUBSTRUCTURE
     1 KZ0         1 TEMP              0 ****  ****    0 ROOT
