@<TRIPOS>MOLECULE
KZ0
   18    18     1     0     0
SMALL
abcg2


@<TRIPOS>ATOM
      1 N1         -19.0880    19.3550     9.6650 nb         1 KZ0      -0.182667
      2 C1         -20.5780    17.1960     9.3140 ca         1 KZ0       0.155300
      3 C2         -20.2150    19.3770     8.9650 ca         1 KZ0       0.155300
      4 C5         -20.6310    20.6830     8.3660 c3         1 KZ0       0.076967
      5 C3         -18.7640    18.1810    10.1770 ca         1 KZ0       0.155300
      6 N          -20.9930    18.3280     8.7600 nb         1 KZ0      -0.182667
      7 N2         -19.4760    17.0710    10.0330 nb         1 KZ0      -0.182667
      8 C          -21.4330    15.9830     9.1300 c3         1 KZ0       0.076967
      9 H1         -19.8040    21.1450     7.8320 h1         1 KZ0       0.093700
     10 H2         -21.4800    20.5540     7.7010 h1         1 KZ0       0.093700
     11 H4         -17.1130    17.0940    11.0060 h1         1 KZ0       0.093700
     12 H5         -16.7700    18.8100    10.6490 h1         1 KZ0       0.093700
     13 H7         -21.9120    15.9840     8.1550 h1         1 KZ0       0.093700
     14 H8         -20.8590    15.0730     9.2740 h1         1 KZ0       0.093700
     15 CL1        -22.7260    16.0220    10.3740 cl         1 KZ0      -0.237000
     16 CL3        -17.9380    18.5410    12.6880 cl         1 KZ0      -0.237000
     17 CL2        -21.1160    21.7950     9.6850 cl         1 KZ0      -0.237000
     18 C4         -17.5170    18.1020    10.9980 c3         1 KZ0       0.076967
@<TRIPOS>BOND
     1     1     3 ar  
     2     1     5 ar  
     3     2     6 ar  
     4     2     7 ar  
     5     2     8 1   
     6     3     4 1   
     7     3     6 ar  
     8     4     9 1   
     9     4    10 1   
    10     4    17 1   
    11     5     7 ar  
    12     5    18 1   
    13     8    13 1   
    14     8    14 1   
    15     8    15 1   
    16    11    18 1   
    17    12    18 1   
    18    16    18 1   
@<TRIPOS>SUBSTRUCTURE
     1 KZ0         1 TEMP              0 ****  ****    0 ROOT
