@<TRIPOS>MOLECULE
KZ1
   36    37     1     0     0
SMALL
No Charge or Current Charge


@<TRIPOS>ATOM
      1 N            2.8140     2.3310    -1.4520 n8         1 KZ1      -0.996200
      2 CB1          2.7110     2.0300     1.0430 c3         1 KZ1       0.030600
      3 CA1          2.9010     1.3320    -0.3290 c3         1 KZ1       0.141200
      4 C1           1.9500     0.1280    -0.4780 cc         1 KZ1       0.516900
      5 N2           0.6180     0.2500    -0.3570 nd         1 KZ1      -0.681300
      6 N3           2.3730    -1.1630    -0.7710 n          1 KZ1      -0.298300
      7 C2           1.2870    -2.0000    -0.8460 c          1 KZ1       0.538200
      8 O2           1.2680    -3.2050    -1.0670 o          1 KZ1      -0.486000
      9 CA2          0.1840    -1.0530    -0.5830 cd         1 KZ1       0.058400
     10 CA3          3.7750    -1.6390    -0.9330 c3         1 KZ1      -0.059000
     11 CB2         -1.1510    -1.4010    -0.5260 ce         1 KZ1      -0.130200
     12 CG2         -2.3600    -0.5720    -0.2250 ca         1 KZ1      -0.046800
     13 CD1         -3.4530    -1.1360     0.4700 ca         1 KZ1       0.160000
     14 CD2         -2.4460     0.7720    -0.6480 ca         1 KZ1      -0.085000
     15 CE1         -4.6000    -0.3680     0.7510 ca         1 KZ1       0.034000
     16 CE2         -3.5900     1.5390    -0.3690 ca         1 KZ1       0.133000
     17 CZ          -4.6760     0.9760     0.3350 ca         1 KZ1       0.081100
     18 OH          -5.7970     1.7200     0.6100 oh         1 KZ1      -0.511100
     19 C            4.4950    -1.9580     0.3960 c          1 KZ1       0.714000
     20 O            4.4030    -1.1520     1.3100 o          1 KZ1      -0.712500
     21 F1          -5.6380    -0.9230     1.4240 f          1 KZ1      -0.176000
     22 F2          -3.4000    -2.4250     0.8820 f          1 KZ1      -0.157000
     23 F3          -3.6400     2.8250    -0.7890 f          1 KZ1      -0.167000
     24 HN1          1.8600     2.7120    -1.4870 hn         1 KZ1       0.402500
     25 HN2          3.3980     3.1410    -1.2180 hn         1 KZ1       0.402500
     26 HG1          3.1630     4.3710     0.5780 hs         1 KZ1       0.179800
     27 HB11         2.8860     1.2900     1.8360 h1         1 KZ1       0.109200
     28 HB12         1.6710     2.3690     1.1410 h1         1 KZ1       0.109200
     29 HA1          3.9290     0.9460    -0.3290 h1         1 KZ1       0.094700
     30 HA31         3.7770    -2.5460    -1.5510 h1         1 KZ1       0.047700
     31 HB32         4.3610    -0.8820    -1.4660 h1         1 KZ1       0.047700
     32 HB2         -1.3470    -2.4650    -0.6690 ha         1 KZ1       0.204000
     33 HD2         -1.6330     1.2280    -1.2050 ha         1 KZ1       0.181000
     34 H1          -6.4310     1.1520     1.1010 ho         1 KZ1       0.476000
     35 OXT          5.0900    -3.0220     0.4890 o          1 KZ1      -0.712500
     36 SG1          3.8380     3.4840     1.3490 sh         1 KZ1      -0.443800
@<TRIPOS>BOND
     1     1     3 1   
     2     1    24 1   
     3     1    25 1   
     4     2     3 1   
     5     2    27 1   
     6     2    28 1   
     7     2    36 1   
     8     3     4 1   
     9     3    29 1   
    10     4     5 2   
    11     4     6 1   
    12     5     9 1   
    13     6     7 1   
    14     6    10 1   
    15     7     8 2   
    16     7     9 1   
    17     9    11 2   
    18    10    19 1   
    19    10    30 1   
    20    10    31 1   
    21    11    12 1   
    22    11    32 1   
    23    12    13 ar  
    24    12    14 ar  
    25    13    15 ar  
    26    13    22 1   
    27    14    16 ar  
    28    14    33 1   
    29    15    17 ar  
    30    15    21 1   
    31    16    17 ar  
    32    16    23 1   
    33    17    18 1   
    34    18    34 1   
    35    19    20 1   
    36    19    35 1   
    37    26    36 1   
@<TRIPOS>SUBSTRUCTURE
     1 KZ1         1 TEMP              0 ****  ****    0 ROOT
