@<TRIPOS>MOLECULE
KZ1
   36    37     1     0     0
SMALL
bcc


@<TRIPOS>ATOM
      1 N            2.1230     2.4850    -1.4350 n8         1 KZ1      -0.885800
      2 CB1          3.2320     1.7740     0.7190 c3         1 KZ1      -0.017300
      3 CA1          2.7990     1.4280    -0.7180 c3         1 KZ1       0.141200
      4 C1           1.8980     0.2340    -0.6310 cc         1 KZ1       0.516900
      5 N2           0.6250     0.3390    -0.4390 nd         1 KZ1      -0.681300
      6 N3           2.3560    -1.0580    -0.6940 n          1 KZ1      -0.365300
      7 C2           1.2850    -1.8950    -0.4770 c          1 KZ1       0.680700
      8 O2           1.3170    -3.1070    -0.4420 o          1 KZ1      -0.561500
      9 CA2          0.1440    -0.9550    -0.3370 cd         1 KZ1       0.058400
     10 CA3          3.7130    -1.5370    -0.7690 c3         1 KZ1      -0.059000
     11 CB2         -1.1220    -1.3740    -0.1530 ce         1 KZ1      -0.080200
     12 CG2         -2.3180    -0.5690    -0.0320 ca         1 KZ1      -0.046800
     13 CD1         -3.5430    -1.1930     0.1900 ca         1 KZ1       0.124900
     14 CD2         -2.3310     0.8320    -0.1360 ca         1 KZ1      -0.103000
     15 CE1         -4.7170    -0.4750     0.3030 ca         1 KZ1      -0.001100
     16 CE2         -3.5040     1.5300    -0.0230 ca         1 KZ1       0.097900
     17 CZ          -4.7340     0.9080     0.2000 ca         1 KZ1       0.081100
     18 OH          -5.8320     1.6560     0.3000 oh         1 KZ1      -0.472100
     19 C            4.3360    -1.8590     0.6100 c          1 KZ1       0.924600
     20 O            3.6700    -1.5680     1.6160 o          1 KZ1      -0.817800
     21 F1          -5.8690    -1.1200     0.5190 f          1 KZ1      -0.140900
     22 F2          -3.6180    -2.5200     0.3020 f          1 KZ1      -0.121900
     23 F3          -3.5020     2.8640    -0.1280 f          1 KZ1      -0.131900
     24 HN1          1.3150     2.7990    -0.9120 hn         1 KZ1       0.347300
     25 HN2          2.7440     3.2800    -1.5260 hn         1 KZ1       0.347300
     26 HG1          3.6630     4.1310     0.5910 hs         1 KZ1       0.179800
     27 HB11         3.6780     0.9070     1.2070 h1         1 KZ1       0.109200
     28 HB12         2.3640     2.0670     1.3100 h1         1 KZ1       0.109200
     29 HA1          3.6950     1.1620    -1.2850 h1         1 KZ1       0.094700
     30 HA31         3.7260    -2.4300    -1.3940 h1         1 KZ1       0.047700
     31 HB32         4.3270    -0.7990    -1.2860 h1         1 KZ1       0.047700
     32 HB2         -1.2470    -2.4480    -0.0950 ha         1 KZ1       0.154000
     33 HD2         -1.4070     1.3650    -0.3100 ha         1 KZ1       0.199000
     34 H1          -6.6200     1.1150     0.4350 ho         1 KZ1       0.437000
     35 OXT          5.4660    -2.3740     0.5520 o          1 KZ1      -0.817800
     36 SG1          4.4800     3.0900     0.7860 sh         1 KZ1      -0.395900
@<TRIPOS>BOND
     1     1     3 1   
     2     1    24 1   
     3     1    25 1   
     4     2     3 1   
     5     2    27 1   
     6     2    28 1   
     7     2    36 1   
     8     3     4 1   
     9     3    29 1   
    10     4     5 2   
    11     4     6 1   
    12     5     9 1   
    13     6     7 1   
    14     6    10 1   
    15     7     8 2   
    16     7     9 1   
    17     9    11 2   
    18    10    19 1   
    19    10    30 1   
    20    10    31 1   
    21    11    12 1   
    22    11    32 1   
    23    12    13 ar  
    24    12    14 ar  
    25    13    15 ar  
    26    13    22 1   
    27    14    16 ar  
    28    14    33 1   
    29    15    17 ar  
    30    15    21 1   
    31    16    17 ar  
    32    16    23 1   
    33    17    18 1   
    34    18    34 1   
    35    19    20 1   
    36    19    35 1   
    37    26    36 1   
@<TRIPOS>SUBSTRUCTURE
     1 KZ1         1 TEMP              0 ****  ****    0 ROOT
