@<TRIPOS>MOLECULE
KZ2
   17    18     1     0     0
SMALL
No Charge or Current Charge


@<TRIPOS>ATOM
      1 C7          86.6520    42.0370   110.8280 ca         1 KZ2      -0.139000
      2 C6          86.8880    43.0070   111.8190 ca         1 KZ2      -0.109000
      3 C8          85.6360    41.0740   111.0050 ca         1 KZ2      -0.095000
      4 C3          85.2910    43.6270   115.1170 cc         1 KZ2      -0.232400
      5 C1          84.8330    41.0670   112.1730 ca         1 KZ2      -0.109600
      6 C2          85.0950    42.0520   113.1560 ca         1 KZ2      -0.134000
      7 C5          86.0960    42.9870   112.9740 ca         1 KZ2      -0.100800
      8 O1          82.6430    40.3690   112.7300 o          1 KZ2      -0.710500
      9 C           83.7470    40.0200   112.3340 c          1 KZ2       0.715600
     10 O           84.0040    38.8710   112.0000 o          1 KZ2      -0.710500
     11 C4          86.1900    43.8790   114.1020 cd         1 KZ2      -0.198200
     12 S           84.2500    42.2290   114.7310 ss         1 KZ2       0.170400
     13 H1          87.2550    42.0290   109.9230 ha         1 KZ2       0.086000
     14 H2          87.6710    43.7510   111.6920 ha         1 KZ2       0.086000
     15 H3          85.4650    40.3310   110.2280 ha         1 KZ2       0.125000
     16 H4          85.1570    44.1450   116.0600 h4         1 KZ2       0.185000
     17 H6          86.9130    44.6900   114.1520 ha         1 KZ2       0.172000
@<TRIPOS>BOND
     1     1     2 ar  
     2     1     3 ar  
     3     1    13 1   
     4     2     7 ar  
     5     2    14 1   
     6     3     5 ar  
     7     3    15 1   
     8     4    11 2   
     9     4    12 1   
    10     4    16 1   
    11     5     6 ar  
    12     5     9 1   
    13     6     7 ar  
    14     6    12 1   
    15     7    11 1   
    16     8     9 1   
    17     9    10 1   
    18    11    17 1   
@<TRIPOS>SUBSTRUCTURE
     1 KZ2         1 TEMP              0 ****  ****    0 ROOT
