@<TRIPOS>MOLECULE
KZ2
   17    18     1     0     0
SMALL
bcc


@<TRIPOS>ATOM
      1 C7          86.6910    42.0050   110.8780 ca         1 KZ2      -0.157000
      2 C6          86.9120    42.9730   111.8370 ca         1 KZ2      -0.127000
      3 C8          85.6740    41.0590   111.0430 ca         1 KZ2      -0.113000
      4 C3          85.2170    43.6280   115.0190 cc         1 KZ2      -0.182400
      5 C1          84.8540    41.0560   112.1600 ca         1 KZ2      -0.109600
      6 C2          85.0870    42.0400   113.1250 ca         1 KZ2      -0.007100
      7 C5          86.1060    43.0010   112.9810 ca         1 KZ2      -0.100800
      8 O1          83.0690    40.1650   113.3810 o          1 KZ2      -0.815800
      9 C           83.7460    40.0320   112.3400 c          1 KZ2       0.926200
     10 O           83.6160    39.1700   111.4550 o          1 KZ2      -0.815800
     11 C4          86.1580    43.9070   114.0920 cd         1 KZ2      -0.148200
     12 S           84.2180    42.2690   114.6110 ss         1 KZ2       0.043500
     13 H1          87.3090    41.9750   109.9900 ha         1 KZ2       0.104000
     14 H2          87.7000    43.7060   111.7120 ha         1 KZ2       0.104000
     15 H3          85.5140    40.3060   110.2820 ha         1 KZ2       0.143000
     16 H4          85.0460    44.1580   115.9450 h4         1 KZ2       0.135000
     17 H6          86.8690    44.7170   114.1730 ha         1 KZ2       0.122000
@<TRIPOS>BOND
     1     1     2 ar  
     2     1     3 ar  
     3     1    13 1   
     4     2     7 ar  
     5     2    14 1   
     6     3     5 ar  
     7     3    15 1   
     8     4    11 2   
     9     4    12 1   
    10     4    16 1   
    11     5     6 ar  
    12     5     9 1   
    13     6     7 ar  
    14     6    12 1   
    15     7    11 1   
    16     8     9 1   
    17     9    10 1   
    18    11    17 1   
@<TRIPOS>SUBSTRUCTURE
     1 KZ2         1 TEMP              0 ****  ****    0 ROOT
