@<TRIPOS>MOLECULE
KZ3
   57    61     1     0     0
SMALL
abcg2


@<TRIPOS>ATOM
      1 C1          65.1560    68.5040    71.5920 c6         1 KZ3       0.143300
      2 C2          64.5260    67.5180    70.5940 c6         1 KZ3       0.146300
      3 C3          65.5530    66.4850    70.1590 c6         1 KZ3       0.173300
      4 C4          66.2570    65.8530    71.3520 c6         1 KZ3       0.096300
      5 C5          66.8170    66.9470    72.2620 c6         1 KZ3       0.289300
      6 C6          64.1370    69.4530    72.1760 c3         1 KZ3       0.170600
      7 C8          67.7740    65.2630    75.3460 cc         1 KZ3      -0.103400
      8 C9          68.6110    66.9430    74.0010 ca         1 KZ3      -0.003200
      9 C13         70.5540    68.2680    74.3560 ca         1 KZ3      -0.066000
     10 C18         65.6430    66.5820    78.9080 ca         1 KZ3      -0.108000
     11 C19         66.1510    66.1990    80.1540 ca         1 KZ3      -0.045300
     12 C20         67.1370    65.2100    80.1740 ca         1 KZ3      -0.108000
     13 C21         67.5920    64.6210    78.9990 ca         1 KZ3      -0.099000
     14 C22         65.6840    66.8000    81.4290 cx         1 KZ3      -0.084400
     15 C23         64.2330    67.1750    81.6380 cx         1 KZ3      -0.123900
     16 O1          65.7560    67.7970    72.6800 os         1 KZ3      -0.456000
     17 N1          67.4630    66.4260    73.4280 na         1 KZ3      -0.100700
     18 O2          64.8970    65.4880    69.3870 oh         1 KZ3      -0.650000
     19 O3          67.2900    65.0260    70.8330 oh         1 KZ3      -0.720000
     20 O4          64.0830    68.2060    69.4260 oh         1 KZ3      -0.704000
     21 C7          66.9660    65.4300    74.2580 cd         1 KZ3      -0.162100
     22 C10         68.8390    66.2210    75.2020 ca         1 KZ3      -0.126800
     23 C11         69.9700    66.5630    75.9410 ca         1 KZ3       0.217000
     24 C12         70.8230    67.5670    75.5440 ca         1 KZ3      -0.179000
     25 C14         69.4540    67.9680    73.5690 ca         1 KZ3      -0.137000
     26 O5          64.8220    70.4730    72.9010 oh         1 KZ3      -0.710000
     27 F1          70.2380    65.8800    77.0860 f          1 KZ3      -0.179000
     28 C16         67.0780    64.9980    77.7610 ca         1 KZ3      -0.077300
     29 C17         66.1000    65.9940    77.7370 ca         1 KZ3      -0.099000
     30 C24         65.2670    68.2510    81.5160 cx         1 KZ3      -0.123900
     31 H1          65.9280    69.0820    71.0660 h1         1 KZ3       0.069700
     32 H2          63.6880    67.0020    71.0740 h1         1 KZ3       0.056700
     33 H3          66.3100    66.9960    69.5470 h1         1 KZ3       0.063700
     34 H4          65.5260    65.2580    71.9070 h1         1 KZ3       0.057700
     35 H5          67.5560    67.5260    71.7010 h2         1 KZ3       0.074700
     36 H6          63.5520    69.8890    71.3610 h1         1 KZ3       0.032700
     37 H7          63.4620    68.8920    72.8310 h1         1 KZ3       0.032700
     38 H8          71.2270    69.0590    74.0520 ha         1 KZ3       0.117000
     39 H10         67.5550    64.8990    81.1250 ha         1 KZ3       0.109500
     40 H11         68.3610    63.8590    79.0460 ha         1 KZ3       0.113000
     41 H12         66.1910    66.4110    82.3030 hc         1 KZ3       0.078700
     42 H13         63.5610    67.0220    80.8030 hc         1 KZ3       0.072200
     43 H14         63.8000    66.9810    82.6110 hc         1 KZ3       0.072200
     44 H15         65.5540    64.8110    69.1760 ho         1 KZ3       0.461000
     45 H16         67.5380    64.3740    71.5010 ho         1 KZ3       0.523000
     46 H17         63.1550    68.4430    69.5320 ho         1 KZ3       0.509000
     47 H18         66.0530    64.9120    74.0150 h4         1 KZ3       0.214000
     48 H19         71.6890    67.8040    76.1490 ha         1 KZ3       0.131000
     49 H20         69.2600    68.5170    72.6590 ha         1 KZ3       0.121000
     50 H21         64.1640    71.0810    73.2600 ho         1 KZ3       0.506000
     51 H24         65.6920    66.3160    76.7860 ha         1 KZ3       0.113000
     52 H25         65.5480    68.7990    82.4060 hc         1 KZ3       0.072200
     53 H26         65.2930    68.8280    80.6000 hc         1 KZ3       0.072200
     54 C15         67.5410    64.3200    76.4850 c3         1 KZ3       0.044100
     55 H9          64.8810    67.3490    78.8450 ha         1 KZ3       0.109500
     56 H22         66.7860    63.5910    76.1760 hc         1 KZ3       0.053700
     57 H23         68.4500    63.7530    76.7000 hc         1 KZ3       0.053700
@<TRIPOS>BOND
     1     1     2 1   
     2     1     6 1   
     3     1    16 1   
     4     1    31 1   
     5     2     3 1   
     6     2    20 1   
     7     2    32 1   
     8     3     4 1   
     9     3    18 1   
    10     3    33 1   
    11     4     5 1   
    12     4    19 1   
    13     4    34 1   
    14     5    16 1   
    15     5    17 1   
    16     5    35 1   
    17     6    26 1   
    18     6    36 1   
    19     6    37 1   
    20     7    21 2   
    21     7    22 1   
    22     7    54 1   
    23     8    17 1   
    24     8    22 ar  
    25     8    25 ar  
    26     9    24 ar  
    27     9    25 ar  
    28     9    38 1   
    29    10    11 ar  
    30    10    29 ar  
    31    10    55 1   
    32    11    12 ar  
    33    11    14 1   
    34    12    13 ar  
    35    12    39 1   
    36    13    28 ar  
    37    13    40 1   
    38    14    15 1   
    39    14    30 1   
    40    14    41 1   
    41    15    30 1   
    42    15    42 1   
    43    15    43 1   
    44    17    21 1   
    45    18    44 1   
    46    19    45 1   
    47    20    46 1   
    48    21    47 1   
    49    22    23 ar  
    50    23    24 ar  
    51    23    27 1   
    52    24    48 1   
    53    25    49 1   
    54    26    50 1   
    55    28    29 ar  
    56    28    54 1   
    57    29    51 1   
    58    30    52 1   
    59    30    53 1   
    60    54    56 1   
    61    54    57 1   
@<TRIPOS>SUBSTRUCTURE
     1 KZ3         1 TEMP              0 ****  ****    0 ROOT
