@<TRIPOS>MOLECULE
KZ3
   57    61     1     0     0
SMALL
No Charge or Current Charge


@<TRIPOS>ATOM
      1 C1          64.6960    68.4660    71.5540 c6         1 KZ3       0.143300
      2 C2          64.6420    67.5880    70.2640 c6         1 KZ3       0.146300
      3 C3          66.0800    67.0970    69.9170 c6         1 KZ3       0.173300
      4 C4          66.7160    66.3560    71.1270 c6         1 KZ3       0.096300
      5 C5          66.6760    67.3050    72.3720 c6         1 KZ3       0.289300
      6 C6          63.2760    68.9280    72.0210 c3         1 KZ3       0.170600
      7 C8          67.3260    65.2720    75.4230 cc         1 KZ3      -0.103400
      8 C9          68.4840    66.6800    74.0590 ca         1 KZ3      -0.003200
      9 C13         70.8160    67.3080    74.2130 ca         1 KZ3      -0.066000
     10 C18         65.5560    66.7440    79.1860 ca         1 KZ3      -0.108000
     11 C19         66.3090    66.4070    80.3310 ca         1 KZ3      -0.045300
     12 C20         67.2760    65.3870    80.2300 ca         1 KZ3      -0.108000
     13 C21         67.4880    64.7170    79.0130 ca         1 KZ3      -0.099000
     14 C22         66.1040    67.1100    81.6520 cx         1 KZ3      -0.084400
     15 C23         64.7390    67.5630    82.1240 cx         1 KZ3      -0.123900
     16 O1          65.3120    67.7140    72.6330 os         1 KZ3      -0.456000
     17 N1          67.1830    66.6220    73.5850 na         1 KZ3      -0.100700
     18 O2          66.0630    66.2320    68.7690 oh         1 KZ3      -0.650000
     19 O3          68.0570    65.9240    70.7880 oh         1 KZ3      -0.720000
     20 O4          64.0830    68.3050    69.1460 oh         1 KZ3      -0.704000
     21 C7          66.4710    65.7450    74.4320 cd         1 KZ3      -0.162100
     22 C10         68.6110    65.8800    75.1650 ca         1 KZ3      -0.126800
     23 C11         69.8400    65.7620    75.8380 ca         1 KZ3       0.217000
     24 C12         70.9470    66.4840    75.3540 ca         1 KZ3      -0.179000
     25 C14         69.5730    67.4110    73.5530 ca         1 KZ3      -0.137000
     26 O5          63.3000    69.7040    73.2360 oh         1 KZ3      -0.710000
     27 F1          69.9770    64.9710    76.9250 f          1 KZ3      -0.179000
     28 C16         66.7380    65.0580    77.8720 ca         1 KZ3      -0.077300
     29 C17         65.7690    66.0740    77.9690 ca         1 KZ3      -0.099000
     30 C24         65.7810    68.5860    81.7410 cx         1 KZ3      -0.123900
     31 H1          65.2990    69.3650    71.3580 h1         1 KZ3       0.069700
     32 H2          64.0230    66.7040    70.4830 h1         1 KZ3       0.056700
     33 H3          66.6990    67.9820    69.7030 h1         1 KZ3       0.063700
     34 H4          66.0920    65.4790    71.3580 h1         1 KZ3       0.057700
     35 H5          67.3060    68.1900    72.2050 h2         1 KZ3       0.074700
     36 H6          62.8220    69.5180    71.2130 h1         1 KZ3       0.032700
     37 H7          62.6540    68.0330    72.1590 h1         1 KZ3       0.032700
     38 H8          71.6740    67.8630    73.8410 ha         1 KZ3       0.117000
     39 H10         67.8680    65.1080    81.0990 ha         1 KZ3       0.109500
     40 H11         68.2400    63.9330    78.9590 ha         1 KZ3       0.113000
     41 H12         66.7650    66.7260    82.4270 hc         1 KZ3       0.078700
     42 H13         63.8910    67.4260    81.4580 hc         1 KZ3       0.072200
     43 H14         64.5070    67.4480    83.1790 hc         1 KZ3       0.072200
     44 H15         66.9160    65.7420    68.8200 ho         1 KZ3       0.461000
     45 H16         68.4230    65.4570    71.5770 ho         1 KZ3       0.523000
     46 H17         64.3420    67.7800    68.3500 ho         1 KZ3       0.509000
     47 H18         65.4180    65.5330    74.2740 h4         1 KZ3       0.214000
     48 H19         71.9060    66.4040    75.8600 ha         1 KZ3       0.131000
     49 H20         69.4730    68.0430    72.6740 ha         1 KZ3       0.121000
     50 H21         62.3630    69.8860    73.4800 ho         1 KZ3       0.506000
     51 H24         65.1790    66.3480    77.0970 ha         1 KZ3       0.113000
     52 H25         66.2480    69.1570    82.5400 hc         1 KZ3       0.072200
     53 H26         65.6360    69.1390    80.8160 hc         1 KZ3       0.072200
     54 C15         66.9630    64.3350    76.5470 c3         1 KZ3       0.044100
     55 H9          64.8030    67.5260    79.2300 ha         1 KZ3       0.109500
     56 H22         66.0520    63.7860    76.2800 hc         1 KZ3       0.053700
     57 H23         67.7420    63.5700    76.6500 hc         1 KZ3       0.053700
@<TRIPOS>BOND
     1     1     2 1   
     2     1     6 1   
     3     1    16 1   
     4     1    31 1   
     5     2     3 1   
     6     2    20 1   
     7     2    32 1   
     8     3     4 1   
     9     3    18 1   
    10     3    33 1   
    11     4     5 1   
    12     4    19 1   
    13     4    34 1   
    14     5    16 1   
    15     5    17 1   
    16     5    35 1   
    17     6    26 1   
    18     6    36 1   
    19     6    37 1   
    20     7    21 2   
    21     7    22 1   
    22     7    54 1   
    23     8    17 1   
    24     8    22 ar  
    25     8    25 ar  
    26     9    24 ar  
    27     9    25 ar  
    28     9    38 1   
    29    10    11 ar  
    30    10    29 ar  
    31    10    55 1   
    32    11    12 ar  
    33    11    14 1   
    34    12    13 ar  
    35    12    39 1   
    36    13    28 ar  
    37    13    40 1   
    38    14    15 1   
    39    14    30 1   
    40    14    41 1   
    41    15    30 1   
    42    15    42 1   
    43    15    43 1   
    44    17    21 1   
    45    18    44 1   
    46    19    45 1   
    47    20    46 1   
    48    21    47 1   
    49    22    23 ar  
    50    23    24 ar  
    51    23    27 1   
    52    24    48 1   
    53    25    49 1   
    54    26    50 1   
    55    28    29 ar  
    56    28    54 1   
    57    29    51 1   
    58    30    52 1   
    59    30    53 1   
    60    54    56 1   
    61    54    57 1   
@<TRIPOS>SUBSTRUCTURE
     1 KZ3         1 TEMP              0 ****  ****    0 ROOT
