@<TRIPOS>MOLECULE
KZ4
   36    37     1     0     0
SMALL
abcg2


@<TRIPOS>ATOM
      1 N           -2.0520     2.0800     1.8660 n8         1 KZ4      -0.997200
      2 SG1         -2.7020     3.9440    -0.3320 sh         1 KZ4      -0.445800
      3 CB1         -2.1610     2.2180    -0.5640 c3         1 KZ4       0.096600
      4 CA1         -2.5480     1.4190     0.6720 c3         1 KZ4       0.158200
      5 C1          -2.0210     0.0150     0.5400 cc         1 KZ4       0.479900
      6 N2          -0.7770    -0.2330     0.2980 nd         1 KZ4      -0.678300
      7 N3          -2.7840    -1.1050     0.7730 n          1 KZ4      -0.299300
      8 C2          -1.9770    -2.2080     0.6000 c          1 KZ4       0.534200
      9 O2          -2.3210    -3.3700     0.6610 o          1 KZ4      -0.516000
     10 CA2         -0.6470    -1.6130     0.3250 cd         1 KZ4       0.034400
     11 CA3         -4.2220    -1.1560     0.8450 c3         1 KZ4      -0.064000
     12 CB2          0.4640    -2.3500     0.1390 ce         1 KZ4      -0.108200
     13 CG2          1.8150    -1.9080    -0.1320 ca         1 KZ4      -0.073800
     14 CD1          2.1810    -0.5590    -0.2440 ca         1 KZ4      -0.016000
     15 CD2          2.8160    -2.8730    -0.2910 ca         1 KZ4      -0.053000
     16 CE1          3.4900    -0.2100    -0.5060 ca         1 KZ4      -0.066900
     17 CE2          4.1240    -2.5200    -0.5520 ca         1 KZ4      -0.220000
     18 CZ           4.4860    -1.1790    -0.6660 ca         1 KZ4       0.154100
     19 OH           5.7330    -0.7780    -0.9200 oh         1 KZ4      -0.518100
     20 C           -4.9060    -0.7830    -0.4920 c          1 KZ4       0.711000
     21 O           -4.1640    -0.4350    -1.4260 o          1 KZ4      -0.714500
     22 BR           3.9590     1.6080    -0.6550 br         1 KZ4      -0.092100
     23 HN1         -2.4220     1.6370     2.6970 hn         1 KZ4       0.401000
     24 HN2         -1.0430     1.9970     1.9160 hn         1 KZ4       0.401000
     25 HG1         -2.8560     4.2310    -1.6300 hs         1 KZ4       0.186800
     26 HB11        -2.6510     1.7950    -1.4380 h1         1 KZ4       0.086200
     27 HB12        -1.0830     2.1810    -0.7210 h1         1 KZ4       0.086200
     28 HA1         -3.6360     1.4050     0.7350 h1         1 KZ4       0.109700
     29 HA31        -4.5010    -2.1710     1.1320 h1         1 KZ4       0.050200
     30 HA32        -4.5810    -0.5040     1.6440 h1         1 KZ4       0.050200
     31 HB2          0.3300    -3.4250     0.2020 ha         1 KZ4       0.184000
     32 HD1          1.4260     0.2070    -0.1260 ha         1 KZ4       0.172000
     33 HD2          2.5630    -3.9230    -0.2070 ha         1 KZ4       0.113000
     34 HE2          4.8790    -3.2900    -0.6690 ha         1 KZ4       0.106000
     35 H1           6.3220    -1.5370    -1.0120 ho         1 KZ4       0.462000
     36 OXT         -6.1460    -0.8680    -0.4810 o          1 KZ4      -0.714500
@<TRIPOS>BOND
     1     1     4 1   
     2     1    23 1   
     3     1    24 1   
     4     2     3 1   
     5     2    25 1   
     6     3     4 1   
     7     3    26 1   
     8     3    27 1   
     9     4     5 1   
    10     4    28 1   
    11     5     6 2   
    12     5     7 1   
    13     6    10 1   
    14     7     8 1   
    15     7    11 1   
    16     8     9 2   
    17     8    10 1   
    18    10    12 2   
    19    11    20 1   
    20    11    29 1   
    21    11    30 1   
    22    12    13 1   
    23    12    31 1   
    24    13    14 ar  
    25    13    15 ar  
    26    14    16 ar  
    27    14    32 1   
    28    15    17 ar  
    29    15    33 1   
    30    16    18 ar  
    31    16    22 1   
    32    17    18 ar  
    33    17    34 1   
    34    18    19 1   
    35    19    35 1   
    36    20    21 1   
    37    20    36 1   
@<TRIPOS>SUBSTRUCTURE
     1 KZ4         1 TEMP              0 ****  ****    0 ROOT
