@<TRIPOS>MOLECULE
KZ4
   36    37     1     0     0
SMALL
No Charge or Current Charge


@<TRIPOS>ATOM
      1 N           -1.9400     2.0540     2.1380 n8         1 KZ4      -0.997200
      2 SG1         -2.9430     4.0680    -0.2860 sh         1 KZ4      -0.445800
      3 CB1         -2.1930     2.3610    -0.3610 c3         1 KZ4       0.096600
      4 CA1         -2.4880     1.4530     0.8640 c3         1 KZ4       0.158200
      5 C1          -1.9970     0.0190     0.6010 cc         1 KZ4       0.479900
      6 N2          -0.7010    -0.2630     0.3940 nd         1 KZ4      -0.678300
      7 N3          -2.8220    -1.1010     0.5980 n          1 KZ4      -0.299300
      8 C2          -2.0730    -2.2280     0.3570 c          1 KZ4       0.534200
      9 O2          -2.4520    -3.3900     0.2720 o          1 KZ4      -0.516000
     10 CA2         -0.7220    -1.6460     0.2340 cd         1 KZ4       0.034400
     11 CA3         -4.3000    -1.1370     0.7810 c3         1 KZ4      -0.064000
     12 CB2          0.4240    -2.3780    -0.0100 ce         1 KZ4      -0.108200
     13 CG2          1.8350    -1.9450    -0.2440 ca         1 KZ4      -0.073800
     14 CD1          2.1490    -0.6930    -0.8170 ca         1 KZ4      -0.016000
     15 CD2          2.8840    -2.8250     0.0890 ca         1 KZ4      -0.053000
     16 CE1          3.4880    -0.3230    -1.0330 ca         1 KZ4      -0.066900
     17 CE2          4.2240    -2.4560    -0.1260 ca         1 KZ4      -0.220000
     18 CZ           4.5290    -1.2050    -0.6840 ca         1 KZ4       0.154100
     19 OH           5.8330    -0.8610    -0.8880 oh         1 KZ4      -0.518100
     20 C           -5.1060    -0.8330    -0.5010 c          1 KZ4       0.711000
     21 O           -4.8370     0.1850    -1.1200 o          1 KZ4      -0.714500
     22 Br           3.8650     1.3910    -1.8120 br         1 KZ4      -0.092100
     23 HN1         -2.1940     1.4550     2.9330 hn         1 KZ4       0.401000
     24 HN2         -0.9150     1.9870     2.1120 hn         1 KZ4       0.401000
     25 HG1         -2.4620     4.4940    -1.4780 hs         1 KZ4       0.186800
     26 HB11        -2.5750     1.8680    -1.2650 h1         1 KZ4       0.086200
     27 HB12        -1.1060     2.4650    -0.4800 h1         1 KZ4       0.086200
     28 HA1         -3.5820     1.4220     0.9580 h1         1 KZ4       0.109700
     29 HA31        -4.5930    -2.1300     1.1430 h1         1 KZ4       0.050200
     30 HA32        -4.5960    -0.4130     1.5500 h1         1 KZ4       0.050200
     31 HB2          0.2700    -3.4570    -0.0510 ha         1 KZ4       0.184000
     32 HD1          1.3580    -0.0080    -1.1090 ha         1 KZ4       0.172000
     33 HD2          2.6600    -3.7970     0.5240 ha         1 KZ4       0.113000
     34 HE2          5.0170    -3.1480     0.1430 ha         1 KZ4       0.106000
     35 H1           6.3970    -1.6030    -0.5850 ho         1 KZ4       0.462000
     36 OXT         -5.9480    -1.6430    -0.8600 o          1 KZ4      -0.714500
@<TRIPOS>BOND
     1     1     4 1   
     2     1    23 1   
     3     1    24 1   
     4     2     3 1   
     5     2    25 1   
     6     3     4 1   
     7     3    26 1   
     8     3    27 1   
     9     4     5 1   
    10     4    28 1   
    11     5     6 2   
    12     5     7 1   
    13     6    10 1   
    14     7     8 1   
    15     7    11 1   
    16     8     9 2   
    17     8    10 1   
    18    10    12 2   
    19    11    20 1   
    20    11    29 1   
    21    11    30 1   
    22    12    13 1   
    23    12    31 1   
    24    13    14 ar  
    25    13    15 ar  
    26    14    16 ar  
    27    14    32 1   
    28    15    17 ar  
    29    15    33 1   
    30    16    18 ar  
    31    16    22 1   
    32    17    18 ar  
    33    17    34 1   
    34    18    19 1   
    35    19    35 1   
    36    20    21 1   
    37    20    36 1   
@<TRIPOS>SUBSTRUCTURE
     1 KZ4         1 TEMP              0 ****  ****    0 ROOT
