@<TRIPOS>MOLECULE
KZ5
   28    28     1     0     0
SMALL
No Charge or Current Charge


@<TRIPOS>ATOM
      1 C6           1.5170     0.0630    -1.2180 c3         1 KZ5      -0.075700
      2 C7           2.3650    -0.3260     0.0280 c3         1 KZ5       0.066500
      3 C13          2.9880     0.3040     2.3560 c3         1 KZ5       0.193600
      4 C9           3.7210    -1.0100    -0.4190 c          1 KZ5       0.694000
      5 C5          -2.0260     0.1880    -0.4500 cc         1 KZ5       0.256400
      6 C3          -0.4110     1.7190    -0.7700 cc         1 KZ5      -0.271000
      7 C2           0.1000     0.4530    -0.8860 cd         1 KZ5       0.267300
      8 N1          -0.8930    -0.4880    -0.7040 nd         1 KZ5      -0.614000
      9 O16         -3.4920    -1.4210     1.0610 o          1 KZ5      -0.701867
     10 O15         -4.5920     0.6350     0.1200 o          1 KZ5      -0.701867
     11 C12          3.1680     1.9950     0.5900 c3         1 KZ5       0.193600
     12 N4          -1.7500     1.5460    -0.4850 na         1 KZ5      -0.262500
     13 N8           2.4600     0.7800     1.0590 n3         1 KZ5      -0.732600
     14 O10          4.3890    -0.5010    -1.3120 o          1 KZ5      -0.749500
     15 O11          4.0510    -2.0560     0.1280 o          1 KZ5      -0.749500
     16 O17         -4.0070    -1.3290    -1.3320 o          1 KZ5      -0.701867
     17 HC6B         2.0070     0.8710    -1.7730 hc         1 KZ5       0.040200
     18 HC6A         1.4980    -0.7940    -1.9020 hc         1 KZ5       0.040200
     19 HC7          1.8010    -1.1460     0.4950 h1         1 KZ5       0.063700
     20 H13C         2.9290     1.0990     3.1110 h1         1 KZ5       0.007367
     21 H13A         2.4050    -0.5520     2.7200 h1         1 KZ5       0.007367
     22 H13B         4.0370    -0.0050     2.2620 h1         1 KZ5       0.007367
     23 HC3          0.0640     2.6870    -0.8610 h4         1 KZ5       0.123000
     24 H12A         4.2150     1.7710     0.3500 h1         1 KZ5       0.007367
     25 H12C         2.6870     2.4170    -0.3010 h1         1 KZ5       0.007367
     26 H12B         3.1550     2.7690     1.3680 h1         1 KZ5       0.007367
     27 HN4         -2.4400     2.2730    -0.3280 hn         1 KZ5       0.348000
     28 S14         -3.7460    -0.5530    -0.1050 s6         1 KZ5       1.228700
@<TRIPOS>BOND
     1     1     2 1   
     2     1     7 1   
     3     1    17 1   
     4     1    18 1   
     5     2     4 1   
     6     2    13 1   
     7     2    19 1   
     8     3    13 1   
     9     3    20 1   
    10     3    21 1   
    11     3    22 1   
    12     4    14 1   
    13     4    15 1   
    14     5     8 2   
    15     5    12 1   
    16     5    28 1   
    17     6     7 2   
    18     6    12 1   
    19     6    23 1   
    20     7     8 1   
    21     9    28 1   
    22    10    28 1   
    23    11    13 1   
    24    11    24 1   
    25    11    25 1   
    26    11    26 1   
    27    12    27 1   
    28    16    28 1   
@<TRIPOS>SUBSTRUCTURE
     1 KZ5         1 TEMP              0 ****  ****    0 ROOT
