@<TRIPOS>MOLECULE
KZ5
   28    28     1     0     0
SMALL
bcc


@<TRIPOS>ATOM
      1 C6           1.5800    -0.0200    -1.2780 c3         1 KZ5      -0.075700
      2 C7           2.3950    -0.3900    -0.0270 c3         1 KZ5       0.066500
      3 C13          2.7470     0.2580     2.2850 c3         1 KZ5       0.193600
      4 C9           3.7870    -0.9350    -0.4470 c          1 KZ5       0.904600
      5 C5          -1.8340     0.2310    -0.3030 cc         1 KZ5       0.256400
      6 C3          -0.3760     1.6450    -1.0950 cc         1 KZ5      -0.303600
      7 C2           0.1870     0.4030    -0.9660 cd         1 KZ5       0.332600
      8 N1          -0.7430    -0.4690    -0.4730 nd         1 KZ5      -0.614000
      9 O16         -3.1080    -1.1100     1.5110 o          1 KZ5      -0.701867
     10 O15         -4.2100     0.8190     0.4360 o          1 KZ5      -0.701867
     11 C12          2.9270     1.9380     0.5870 c3         1 KZ5       0.193600
     12 N4          -1.6640     1.5150    -0.6670 na         1 KZ5      -0.262900
     13 N8           2.3550     0.6680     0.9610 n3         1 KZ5      -0.732600
     14 O10          4.8060    -0.4140     0.0460 o          1 KZ5      -0.854800
     15 O11          3.7670    -1.8870    -1.2570 o          1 KZ5      -0.854800
     16 O17         -3.8770    -1.2790    -0.8140 o          1 KZ5      -0.701867
     17 HC6B         2.0760     0.7710    -1.8470 hc         1 KZ5       0.040200
     18 HC6A         1.5630    -0.8940    -1.9300 hc         1 KZ5       0.040200
     19 HC7          1.8660    -1.2380     0.4280 h1         1 KZ5       0.063700
     20 H13C         2.4640     1.0280     3.0100 h1         1 KZ5       0.007367
     21 H13A         2.2170    -0.6560     2.5630 h1         1 KZ5       0.007367
     22 H13B         3.8220     0.0720     2.4040 h1         1 KZ5       0.007367
     23 HC3          0.0260     2.5840    -1.4360 h4         1 KZ5       0.141000
     24 H12A         4.0210     1.9410     0.5230 h1         1 KZ5       0.007367
     25 H12C         2.5350     2.2720    -0.3740 h1         1 KZ5       0.007367
     26 H12B         2.6350     2.6930     1.3220 h1         1 KZ5       0.007367
     27 HN4         -2.3620     2.2410    -0.6230 hn         1 KZ5       0.297700
     28 S14         -3.4010    -0.3980     0.2610 s6         1 KZ5       1.228700
@<TRIPOS>BOND
     1     1     2 1   
     2     1     7 1   
     3     1    17 1   
     4     1    18 1   
     5     2     4 1   
     6     2    13 1   
     7     2    19 1   
     8     3    13 1   
     9     3    20 1   
    10     3    21 1   
    11     3    22 1   
    12     4    14 1   
    13     4    15 1   
    14     5     8 2   
    15     5    12 1   
    16     5    28 1   
    17     6     7 2   
    18     6    12 1   
    19     6    23 1   
    20     7     8 1   
    21     9    28 1   
    22    10    28 1   
    23    11    13 1   
    24    11    24 1   
    25    11    25 1   
    26    11    26 1   
    27    12    27 1   
    28    16    28 1   
@<TRIPOS>SUBSTRUCTURE
     1 KZ5         1 TEMP              0 ****  ****    0 ROOT
