@<TRIPOS>MOLECULE
KZ6
   14    14     1     0     0
SMALL
bcc


@<TRIPOS>ATOM
      1 C02          5.4080     1.5560    18.8450 ca         1 KZ6      -0.136000
      2 C03          4.3960     0.8160    18.2520 ca         1 KZ6       0.052900
      3 C04          3.5070     1.4030    17.3630 ca         1 KZ6      -0.136000
      4 C05          3.6420     2.7540    17.0710 ca         1 KZ6      -0.107500
      5 C06          4.6470     3.5230    17.6490 ca         1 KZ6      -0.119600
      6 C01          5.5230     2.9050    18.5370 ca         1 KZ6      -0.107500
      7 C07          4.7860     5.0080    17.3190 c          1 KZ6       0.924200
      8 I10          4.2080    -1.2320    18.7040 i          1 KZ6      -0.265900
      9 O08          5.7160     5.6130    17.8850 o          1 KZ6      -0.820300
     10 O09          3.9580     5.4730    16.5140 o          1 KZ6      -0.820300
     11 H021         6.1020     1.1000    19.5390 ha         1 KZ6       0.119000
     12 H041         2.7180     0.8260    16.9000 ha         1 KZ6       0.119000
     13 H051         2.9500     3.2130    16.3780 ha         1 KZ6       0.149000
     14 H011         6.3110     3.4850    18.9980 ha         1 KZ6       0.149000
@<TRIPOS>BOND
     1     1     2 ar  
     2     1     6 ar  
     3     1    11 1   
     4     2     3 ar  
     5     2     8 1   
     6     3     4 ar  
     7     3    12 1   
     8     4     5 ar  
     9     4    13 1   
    10     5     6 ar  
    11     5     7 1   
    12     6    14 1   
    13     7     9 1   
    14     7    10 1   
@<TRIPOS>SUBSTRUCTURE
     1 KZ6         1 TEMP              0 ****  ****    0 ROOT
