@<TRIPOS>MOLECULE
KZ6
   14    14     1     0     0
SMALL
No Charge or Current Charge


@<TRIPOS>ATOM
      1 C02          5.4130     1.5500    18.8510 ca         1 KZ6      -0.118000
      2 C03          4.3940     0.7920    18.2570 ca         1 KZ6       0.190000
      3 C04          3.5010     1.3960    17.3600 ca         1 KZ6      -0.118000
      4 C05          3.6260     2.7630    17.0540 ca         1 KZ6      -0.089500
      5 C06          4.6500     3.5440    17.6450 ca         1 KZ6      -0.119600
      6 C01          5.5420     2.9170    18.5480 ca         1 KZ6      -0.089500
      7 C07          4.7870     5.0240    17.3160 c          1 KZ6       0.713600
      8 I10          4.1990    -1.3140    18.7250 i          1 KZ6      -0.403000
      9 O08          5.6850     5.6610    17.8480 o          1 KZ6      -0.715000
     10 O09          3.9950     5.5250    16.5300 o          1 KZ6      -0.715000
     11 H021         6.1030     1.0780    19.5450 ha         1 KZ6       0.101000
     12 H041         2.7130     0.8050    16.9010 ha         1 KZ6       0.101000
     13 H051         2.9240     3.2130    16.3560 ha         1 KZ6       0.131000
     14 H011         6.3400     3.4880    19.0190 ha         1 KZ6       0.131000
@<TRIPOS>BOND
     1     1     2 ar  
     2     1     6 ar  
     3     1    11 1   
     4     2     3 ar  
     5     2     8 1   
     6     3     4 ar  
     7     3    12 1   
     8     4     5 ar  
     9     4    13 1   
    10     5     6 ar  
    11     5     7 1   
    12     6    14 1   
    13     7     9 1   
    14     7    10 1   
@<TRIPOS>SUBSTRUCTURE
     1 KZ6         1 TEMP              0 ****  ****    0 ROOT
