@<TRIPOS>MOLECULE
KZ7
   36    37     1     0     0
SMALL
bcc


@<TRIPOS>ATOM
      1 N           -2.1100     2.5540     1.4820 n8         1 KZ7      -0.876800
      2 CB1         -3.2360     1.8530    -0.5470 c3         1 KZ7       0.038700
      3 CA1         -2.7310     1.4260     0.8300 c3         1 KZ7       0.153200
      4 C1          -1.8150     0.2430     0.6510 cc         1 KZ7       0.455900
      5 N2          -0.5410     0.3690     0.4850 nd         1 KZ7      -0.685300
      6 N3          -2.2600    -1.0570     0.6360 n          1 KZ7      -0.364300
      7 C2          -1.1780    -1.8710     0.3880 c          1 KZ7       0.681700
      8 O2          -1.2020    -3.0800     0.2830 o          1 KZ7      -0.572500
      9 CA2         -0.0470    -0.9160     0.3170 cd         1 KZ7       0.035400
     10 CA3         -3.6140    -1.5480     0.6770 c3         1 KZ7      -0.056000
     11 CB2          1.2280    -1.3070     0.1330 ce         1 KZ7      -0.056200
     12 CG2          2.4310    -0.5040     0.0650 ca         1 KZ7      -0.064800
     13 CD1          3.6500    -1.1710    -0.1100 ca         1 KZ7      -0.082000
     14 CD2          2.4580     0.8930     0.1680 ca         1 KZ7      -0.053000
     15 CE1          4.8380    -0.4750    -0.1800 ca         1 KZ7      -0.020600
     16 CE2          3.6490     1.5850     0.0950 ca         1 KZ7      -0.230000
     17 CZ           4.8610     0.9170    -0.0800 ca         1 KZ7       0.138100
     18 OH           6.0400     1.5380    -0.1580 oh         1 KZ7      -0.482100
     19 C           -4.2340    -1.7820    -0.7200 c          1 KZ7       0.924600
     20 O           -3.5710    -1.4140    -1.7040 o          1 KZ7      -0.819300
     21 CL           6.3290    -1.3230    -0.3940 cl         1 KZ7      -0.111400
     22 HN1         -1.8430     2.3060     2.4260 hn         1 KZ7       0.347800
     23 HN2         -1.2530     2.7990     1.0000 hn         1 KZ7       0.347800
     24 HG1         -5.1220     3.0210    -1.4140 hs         1 KZ7       0.199800
     25 HB11        -3.7570     1.0390    -1.0440 h1         1 KZ7       0.093700
     26 HB12        -2.3880     2.1370    -1.1730 h1         1 KZ7       0.093700
     27 HA1         -3.5920     1.1230     1.4310 h1         1 KZ7       0.089700
     28 HA31        -3.6220    -2.4810     1.2420 h1         1 KZ7       0.046200
     29 HA32        -4.2320    -0.8490     1.2420 h1         1 KZ7       0.046200
     30 HB1          1.3750    -2.3770     0.0250 ha         1 KZ7       0.139000
     31 HD1          3.6640    -2.2510    -0.1900 ha         1 KZ7       0.147000
     32 HD2          1.5370     1.4410     0.3070 ha         1 KZ7       0.171000
     33 HE2          3.6460     2.6660     0.1750 ha         1 KZ7       0.128000
     34 H1           5.9250     2.4930    -0.0830 ho         1 KZ7       0.424000
     35 OXT         -5.3580    -2.3130    -0.7000 o          1 KZ7      -0.819300
     36 SG1         -4.3610     3.2730    -0.3430 sh         1 KZ7      -0.408900
@<TRIPOS>BOND
     1     1     3 1   
     2     1    22 1   
     3     1    23 1   
     4     2     3 1   
     5     2    25 1   
     6     2    26 1   
     7     2    36 1   
     8     3     4 1   
     9     3    27 1   
    10     4     5 2   
    11     4     6 1   
    12     5     9 1   
    13     6     7 1   
    14     6    10 1   
    15     7     8 2   
    16     7     9 1   
    17     9    11 2   
    18    10    19 1   
    19    10    28 1   
    20    10    29 1   
    21    11    12 1   
    22    11    30 1   
    23    12    13 ar  
    24    12    14 ar  
    25    13    15 ar  
    26    13    31 1   
    27    14    16 ar  
    28    14    32 1   
    29    15    17 ar  
    30    15    21 1   
    31    16    17 ar  
    32    16    33 1   
    33    17    18 1   
    34    18    34 1   
    35    19    20 1   
    36    19    35 1   
    37    24    36 1   
@<TRIPOS>SUBSTRUCTURE
     1 KZ7         1 TEMP              0 ****  ****    0 ROOT
