@<TRIPOS>MOLECULE
KZ7
   36    37     1     0     0
SMALL
No Charge or Current Charge


@<TRIPOS>ATOM
      1 N           -2.0000     2.4880     1.8610 n8         1 KZ7      -0.987200
      2 CB1         -3.2880     2.0410    -0.2650 c3         1 KZ7       0.086600
      3 CA1         -2.6910     1.4330     1.0330 c3         1 KZ7       0.153200
      4 C1          -1.8020     0.2200     0.7070 cc         1 KZ7       0.455900
      5 N2          -0.4670     0.3150     0.6030 nd         1 KZ7      -0.685300
      6 N3          -2.2920    -1.0640     0.5000 n          1 KZ7      -0.297300
      7 C2          -1.2510    -1.9200     0.2300 c          1 KZ7       0.539200
      8 O2          -1.2950    -3.1210    -0.0090 o          1 KZ7      -0.497000
      9 CA2         -0.1010    -0.9970     0.3100 cd         1 KZ7       0.035400
     10 CA3         -3.7160    -1.5060     0.4780 c3         1 KZ7      -0.056000
     11 CB2          1.2140    -1.3710     0.1110 ce         1 KZ7      -0.106200
     12 CG2          2.4650    -0.5570     0.0260 ca         1 KZ7      -0.064800
     13 CD1          3.6900    -1.1480     0.3910 ca         1 KZ7      -0.064000
     14 CD2          2.4590     0.7750    -0.4390 ca         1 KZ7      -0.035000
     15 CE1          4.8890    -0.4180     0.3130 ca         1 KZ7       0.071000
     16 CE2          3.6570     1.5080    -0.5200 ca         1 KZ7      -0.212000
     17 CZ           4.8740     0.9180    -0.1430 ca         1 KZ7       0.138100
     18 OH           6.0270     1.6470    -0.2290 oh         1 KZ7      -0.521100
     19 C           -4.2240    -1.9540    -0.9120 c          1 KZ7       0.714000
     20 O           -3.9870    -1.2350    -1.8730 o          1 KZ7      -0.714000
     21 Cl           6.3990    -1.2000     0.7900 cl         1 KZ7      -0.203000
     22 HN1         -1.6960     2.0650     2.7460 hn         1 KZ7       0.403000
     23 HN2         -1.1050     2.7050     1.4050 hn         1 KZ7       0.403000
     24 HG1         -4.8410     3.5810    -1.3100 hs         1 KZ7       0.199800
     25 HB11        -3.7230     1.2340    -0.8680 h1         1 KZ7       0.093700
     26 HB12        -2.4800     2.4900    -0.8570 h1         1 KZ7       0.093700
     27 HA1         -3.5350     1.0670     1.6340 h1         1 KZ7       0.089700
     28 HA31        -3.8280    -2.3480     1.1730 h1         1 KZ7       0.046200
     29 HA32        -4.3750    -0.7030     0.8230 h1         1 KZ7       0.046200
     30 HB1          1.3610    -2.4410    -0.0440 ha         1 KZ7       0.189000
     31 HD1          3.7150    -2.1760     0.7440 ha         1 KZ7       0.129000
     32 HD2          1.5290     1.2440    -0.7530 ha         1 KZ7       0.153000
     33 HE2          3.6300     2.5340    -0.8820 ha         1 KZ7       0.110000
     34 H1           5.8040     2.5410    -0.5650 ho         1 KZ7       0.463000
     35 OXT         -4.8340    -3.0110    -0.9920 o          1 KZ7      -0.714000
     36 SG1         -4.6180     3.3210     0.0020 sh         1 KZ7      -0.456800
@<TRIPOS>BOND
     1     1     3 1   
     2     1    22 1   
     3     1    23 1   
     4     2     3 1   
     5     2    25 1   
     6     2    26 1   
     7     2    36 1   
     8     3     4 1   
     9     3    27 1   
    10     4     5 2   
    11     4     6 1   
    12     5     9 1   
    13     6     7 1   
    14     6    10 1   
    15     7     8 2   
    16     7     9 1   
    17     9    11 2   
    18    10    19 1   
    19    10    28 1   
    20    10    29 1   
    21    11    12 1   
    22    11    30 1   
    23    12    13 ar  
    24    12    14 ar  
    25    13    15 ar  
    26    13    31 1   
    27    14    16 ar  
    28    14    32 1   
    29    15    17 ar  
    30    15    21 1   
    31    16    17 ar  
    32    16    33 1   
    33    17    18 1   
    34    18    34 1   
    35    19    20 1   
    36    19    35 1   
    37    24    36 1   
@<TRIPOS>SUBSTRUCTURE
     1 KZ7         1 TEMP              0 ****  ****    0 ROOT
