@<TRIPOS>MOLECULE
KZ8
   53    56     1     0     0
SMALL
bcc


@<TRIPOS>ATOM
      1 O3           0.2200     1.9990    -2.1460 o          1 KZ8      -0.556100
      2 C4          -2.5910     5.0070     1.8250 c3         1 KZ8       0.122700
      3 C5          -1.5070     2.0070     0.0830 ca         1 KZ8       0.000600
      4 O4          -5.4480    -0.7180    -1.3550 o          1 KZ8      -0.596800
      5 C6           0.6570     2.1360    -1.0220 c          1 KZ8       0.688100
      6 N1           1.7580    -0.1700    -0.4090 nc         1 KZ8      -0.413300
      7 C7           2.1400     2.1590    -0.7150 c3         1 KZ8      -0.186700
      8 C8           2.6130     0.7830    -0.3320 cd         1 KZ8       0.365900
      9 N2           2.1330    -1.4060    -0.0760 ns         1 KZ8      -0.301900
     10 C9           3.3520    -1.8200     0.3730 c          1 KZ8       0.697100
     11 C10          4.3420    -0.7470     0.4550 ca         1 KZ8      -0.146600
     12 C11          5.6400    -1.0220     0.8860 ca         1 KZ8      -0.067000
     13 C12          6.5660    -0.0030     0.9620 ca         1 KZ8      -0.131000
     14 N3          -3.9410    -1.9930     0.1530 nu         1 KZ8      -0.671500
     15 C13          6.2070     1.3000     0.6090 ca         1 KZ8      -0.098000
     16 C14          4.9260     1.5820     0.1820 ca         1 KZ8      -0.123000
     17 C15          3.9740     0.5590     0.1000 ca         1 KZ8      -0.115900
     18 O           -3.1310    -1.3500    -2.1280 o          1 KZ8      -0.596800
     19 C17         -2.6600    -2.3760     0.6340 ca         1 KZ8       0.093600
     20 C22         -2.1580    -1.8310     1.8120 ca         1 KZ8      -0.121000
     21 C21         -0.9280    -2.2470     2.2980 ca         1 KZ8      -0.124500
     22 C20         -0.1870    -3.1930     1.6030 ca         1 KZ8      -0.136000
     23 C19         -0.6840    -3.7240     0.4180 ca         1 KZ8      -0.124500
     24 C18         -1.9220    -3.3230    -0.0660 ca         1 KZ8      -0.121000
     25 C           -3.3950     0.6300    -0.4480 ca         1 KZ8      -0.343500
     26 C16         -2.0240     0.8510    -0.4720 ca         1 KZ8       0.011000
     27 C3          -2.3680     2.9430     0.6800 ca         1 KZ8       0.177100
     28 O1          -1.7830     4.0260     1.1950 os         1 KZ8      -0.313900
     29 C2          -3.7390     2.6970     0.7110 ca         1 KZ8      -0.235000
     30 C1          -4.2540     1.5430     0.1440 ca         1 KZ8      -0.002000
     31 N           -0.1260     2.2480     0.0790 ns         1 KZ8      -0.480100
     32 O2           3.5560    -2.9880     0.6690 o          1 KZ8      -0.619500
     33 H1          -3.3120     5.4410     1.1290 h1         1 KZ8       0.047700
     34 H2          -3.1230     4.5990     2.6860 h1         1 KZ8       0.047700
     35 H3          -1.9130     5.7870     2.1630 h1         1 KZ8       0.047700
     36 H4           2.6820     2.5060    -1.5970 hc         1 KZ8       0.079700
     37 H5           2.3610     2.8640     0.0920 hc         1 KZ8       0.079700
     38 H6           1.3940    -2.0930    -0.1450 hn         1 KZ8       0.361500
     39 H7           5.9130    -2.0330     1.1570 ha         1 KZ8       0.160000
     40 H8           7.5740    -0.2130     1.2950 ha         1 KZ8       0.141000
     41 H9          -4.6090    -1.7730     0.8850 hn         1 KZ8       0.425800
     42 H10          6.9380     2.0940     0.6710 ha         1 KZ8       0.138000
     43 H11          4.6640     2.5960    -0.0870 ha         1 KZ8       0.138000
     44 H12         -2.7350    -1.0890     2.3500 ha         1 KZ8       0.146000
     45 H13         -0.5470    -1.8260     3.2190 ha         1 KZ8       0.138500
     46 H14          0.7740    -3.5170     1.9800 ha         1 KZ8       0.145000
     47 H15         -0.1150    -4.4690    -0.1240 ha         1 KZ8       0.138500
     48 H16         -2.3210    -3.7610    -0.9710 ha         1 KZ8       0.146000
     49 H17         -1.3490     0.1290    -0.9100 ha         1 KZ8       0.177000
     50 H18         -4.4220     3.4030     1.1620 ha         1 KZ8       0.142000
     51 H19         -5.3220     1.3730     0.1700 ha         1 KZ8       0.154000
     52 H20          0.3160     2.4490     0.9630 hn         1 KZ8       0.325500
     53 S           -4.0300    -0.8830    -1.0890 sy         1 KZ8       1.290200
@<TRIPOS>BOND
     1     1     5 2   
     2     2    28 1   
     3     2    33 1   
     4     2    34 1   
     5     2    35 1   
     6     3    26 ar  
     7     3    27 ar  
     8     3    31 1   
     9     4    53 2   
    10     5     7 1   
    11     5    31 1   
    12     6     8 2   
    13     6     9 1   
    14     7     8 1   
    15     7    36 1   
    16     7    37 1   
    17     8    17 1   
    18     9    10 1   
    19     9    38 1   
    20    10    11 1   
    21    10    32 2   
    22    11    12 ar  
    23    11    17 ar  
    24    12    13 ar  
    25    12    39 1   
    26    13    15 ar  
    27    13    40 1   
    28    14    19 1   
    29    14    41 1   
    30    14    53 1   
    31    15    16 ar  
    32    15    42 1   
    33    16    17 ar  
    34    16    43 1   
    35    18    53 2   
    36    19    20 ar  
    37    19    24 ar  
    38    20    21 ar  
    39    20    44 1   
    40    21    22 ar  
    41    21    45 1   
    42    22    23 ar  
    43    22    46 1   
    44    23    24 ar  
    45    23    47 1   
    46    24    48 1   
    47    25    26 ar  
    48    25    30 ar  
    49    25    53 1   
    50    26    49 1   
    51    27    28 1   
    52    27    29 ar  
    53    29    30 ar  
    54    29    50 1   
    55    30    51 1   
    56    31    52 1   
@<TRIPOS>SUBSTRUCTURE
     1 KZ8         1 TEMP              0 ****  ****    0 ROOT
