@<TRIPOS>MOLECULE
KZ8
   53    56     1     0     0
SMALL
No Charge or Current Charge


@<TRIPOS>ATOM
      1 O3           0.6580     0.3630    -1.7930 o          1 KZ8      -0.556100
      2 C4          -1.8880     4.3900     2.5540 c3         1 KZ8       0.145900
      3 C5          -1.4390     1.8030    -0.1130 ca         1 KZ8      -0.092000
      4 O4          -5.9190     0.0430    -1.7490 o          1 KZ8      -0.526000
      5 C6           0.9180     1.2830    -1.0270 c          1 KZ8       0.621100
      6 N1           2.5230     0.1730     0.9500 nc         1 KZ8      -0.413300
      7 C7           2.3480     1.7840    -0.8490 c3         1 KZ8      -0.186700
      8 C8           3.1820     0.9030     0.0460 cd         1 KZ8       0.365900
      9 N2           3.2240    -0.6570     1.7940 ns         1 KZ8      -0.234900
     10 C9           4.5850    -0.8600     1.8660 c          1 KZ8       0.554600
     11 C10          5.3700    -0.0290     0.8890 ca         1 KZ8      -0.146600
     12 C11          6.7780    -0.0980     0.8560 ca         1 KZ8      -0.049000
     13 C12          7.5040     0.6990    -0.0420 ca         1 KZ8      -0.113000
     14 N3          -4.7280    -1.7350    -0.5470 nu         1 KZ8      -0.865100
     15 C13          6.8280     1.5730    -0.9060 ca         1 KZ8      -0.080000
     16 C14          5.4250     1.6470    -0.8810 ca         1 KZ8      -0.105000
     17 C15          4.6740     0.8400     0.0060 ca         1 KZ8      -0.115900
     18 O           -3.7630    -0.9620    -2.7160 o          1 KZ8      -0.526000
     19 C17         -3.7700    -2.4100     0.2120 ca         1 KZ8       0.232000
     20 C22         -4.1650    -2.9980     1.4280 ca         1 KZ8      -0.103000
     21 C21         -3.2330    -3.6810     2.2300 ca         1 KZ8      -0.106500
     22 C20         -1.8940    -3.7850     1.8180 ca         1 KZ8      -0.118000
     23 C19         -1.4920    -3.2120     0.6010 ca         1 KZ8      -0.106500
     24 C18         -2.4260    -2.5310    -0.2000 ca         1 KZ8      -0.103000
     25 C           -3.5890     0.7690    -0.6630 ca         1 KZ8      -0.343500
     26 C16         -2.1990     0.8810    -0.8680 ca         1 KZ8       0.029000
     27 C3          -2.0910     2.6200     0.8380 ca         1 KZ8       0.177100
     28 O1          -1.3240     3.5170     1.5600 os         1 KZ8      -0.337100
     29 C2          -3.4830     2.5050     1.0330 ca         1 KZ8      -0.217000
     30 C1          -4.2300     1.5800     0.2890 ca         1 KZ8       0.016000
     31 N           -0.0270     1.9520    -0.2580 ns         1 KZ8      -0.154000
     32 O2           5.0890    -1.6430     2.6600 o          1 KZ8      -0.544000
     33 H1          -2.6380     5.0560     2.1090 h1         1 KZ8       0.047700
     34 H2          -2.3600     3.8120     3.3590 h1         1 KZ8       0.047700
     35 H3          -1.1030     5.0140     3.0010 h1         1 KZ8       0.047700
     36 H4           2.7970     1.8150    -1.8460 hc         1 KZ8       0.079700
     37 H5           2.3360     2.7890    -0.4140 hc         1 KZ8       0.079700
     38 H6           2.6810    -1.2010     2.4600 hn         1 KZ8       0.361500
     39 H7           7.3120    -0.7660     1.5300 ha         1 KZ8       0.142000
     40 H8           8.5900     0.6450    -0.0630 ha         1 KZ8       0.123000
     41 H9          -5.6480    -1.6290    -0.1410 hn         1 KZ8       0.481000
     42 H10          7.3920     2.1980    -1.5960 ha         1 KZ8       0.120000
     43 H11          4.9360     2.3430    -1.5580 ha         1 KZ8       0.120000
     44 H12         -5.1970    -2.9220     1.7580 ha         1 KZ8       0.128000
     45 H13         -3.5490    -4.1270     3.1710 ha         1 KZ8       0.120500
     46 H14         -1.1720    -4.3130     2.4380 ha         1 KZ8       0.127000
     47 H15         -0.4570    -3.2970     0.2750 ha         1 KZ8       0.120500
     48 H16         -2.0950    -2.1110    -1.1440 ha         1 KZ8       0.128000
     49 H17         -1.7260     0.2480    -1.6110 ha         1 KZ8       0.159000
     50 H18         -4.0050     3.1200     1.7600 ha         1 KZ8       0.124000
     51 H19         -5.3030     1.4970     0.4580 ha         1 KZ8       0.136000
     52 H20          0.3610     2.6800     0.3300 hn         1 KZ8       0.159000
     53 S           -4.5430    -0.4330    -1.5940 sy         1 KZ8       1.148600
@<TRIPOS>BOND
     1     1     5 2   
     2     2    28 1   
     3     2    33 1   
     4     2    34 1   
     5     2    35 1   
     6     3    26 ar  
     7     3    27 ar  
     8     3    31 1   
     9     4    53 2   
    10     5     7 1   
    11     5    31 1   
    12     6     8 2   
    13     6     9 1   
    14     7     8 1   
    15     7    36 1   
    16     7    37 1   
    17     8    17 1   
    18     9    10 1   
    19     9    38 1   
    20    10    11 1   
    21    10    32 2   
    22    11    12 ar  
    23    11    17 ar  
    24    12    13 ar  
    25    12    39 1   
    26    13    15 ar  
    27    13    40 1   
    28    14    19 1   
    29    14    41 1   
    30    14    53 1   
    31    15    16 ar  
    32    15    42 1   
    33    16    17 ar  
    34    16    43 1   
    35    18    53 2   
    36    19    20 ar  
    37    19    24 ar  
    38    20    21 ar  
    39    20    44 1   
    40    21    22 ar  
    41    21    45 1   
    42    22    23 ar  
    43    22    46 1   
    44    23    24 ar  
    45    23    47 1   
    46    24    48 1   
    47    25    26 ar  
    48    25    30 ar  
    49    25    53 1   
    50    26    49 1   
    51    27    28 1   
    52    27    29 ar  
    53    29    30 ar  
    54    29    50 1   
    55    30    51 1   
    56    31    52 1   
@<TRIPOS>SUBSTRUCTURE
     1 KZ8         1 TEMP              0 ****  ****    0 ROOT
