@<TRIPOS>MOLECULE
KZ9
   33    35     1     0     0
SMALL
bcc


@<TRIPOS>ATOM
      1 OAB          4.7590     1.1870    -1.0380 oh         1 KZ9      -0.492100
      2 CAQ          3.6390     1.0310    -0.3050 ca         1 KZ9       0.140100
      3 CAG          2.4800     0.6370    -0.9720 ca         1 KZ9      -0.137000
      4 CAE          3.6050     1.2420     1.0700 ca         1 KZ9      -0.213000
      5 CAD          2.4140     1.0620     1.7610 ca         1 KZ9      -0.089000
      6 CAF          1.2600     0.6720     1.1010 ca         1 KZ9      -0.145000
      7 CAR          1.2960     0.4580    -0.2750 ca         1 KZ9      -0.079300
      8 CAS          0.0390     0.0650    -1.0290 c6         1 KZ9       0.224200
      9 CAP         -0.6980    -1.0610    -0.3650 ce         1 KZ9      -0.310400
     10 CAM         -0.0740    -2.3750    -0.3720 c          1 KZ9       0.595300
     11 OAA          0.9680    -2.5680    -0.9770 o          1 KZ9      -0.525100
     12 CAI         -0.7420    -3.4580     0.4380 c6         1 KZ9      -0.178400
     13 CAH         -2.2530    -3.2890     0.4880 c6         1 KZ9      -0.065400
     14 CAJ         -2.6240    -1.9060     0.9990 c6         1 KZ9      -0.056200
     15 CAO         -1.8690    -0.8430     0.2720 c2         1 KZ9       0.104400
     16 NAK         -2.4210     0.4100     0.2850 ns         1 KZ9      -0.428100
     17 CAN         -1.9570     1.4470    -0.4670 cs         1 KZ9       0.596400
     18 SAC         -2.7900     2.8960    -0.5190 s          1 KZ9      -0.624400
     19 NAL         -0.8480     1.2170    -1.1570 ns         1 KZ9      -0.489900
     20 HAB          5.4980     1.4400    -0.4730 ho         1 KZ9       0.427000
     21 HAG          2.5140     0.4680    -2.0420 ha         1 KZ9       0.149000
     22 HAE          4.5010     1.5450     1.6010 ha         1 KZ9       0.133000
     23 HAD          2.3940     1.2240     2.8310 ha         1 KZ9       0.132000
     24 HAF          0.3440     0.5300     1.6610 ha         1 KZ9       0.133000
     25 HAS          0.3250    -0.2340    -2.0400 h1         1 KZ9       0.087700
     26 HAL         -0.5160     1.9850    -1.7210 hn         1 KZ9       0.355500
     27 HAI1        -0.4610    -4.4320     0.0350 hc         1 KZ9       0.075200
     28 HAI2        -0.3310    -3.4030     1.4530 hc         1 KZ9       0.075200
     29 HAH1        -2.6730    -3.4330    -0.5100 hc         1 KZ9       0.056200
     30 HAH2        -2.6950    -4.0490     1.1320 hc         1 KZ9       0.056200
     31 HAJ1        -3.6980    -1.7330     0.8960 hc         1 KZ9       0.066700
     32 HAJ2        -2.3960    -1.8180     2.0670 hc         1 KZ9       0.066700
     33 HAK         -3.2960     0.5600     0.7630 hn         1 KZ9       0.359500
@<TRIPOS>BOND
     1     1     2 1   
     2     1    20 1   
     3     2     3 ar  
     4     2     4 ar  
     5     3     7 ar  
     6     3    21 1   
     7     4     5 ar  
     8     4    22 1   
     9     5     6 ar  
    10     5    23 1   
    11     6     7 ar  
    12     6    24 1   
    13     7     8 1   
    14     8     9 1   
    15     8    19 1   
    16     8    25 1   
    17     9    10 1   
    18     9    15 2   
    19    10    11 2   
    20    10    12 1   
    21    12    13 1   
    22    12    27 1   
    23    12    28 1   
    24    13    14 1   
    25    13    29 1   
    26    13    30 1   
    27    14    15 1   
    28    14    31 1   
    29    14    32 1   
    30    15    16 1   
    31    16    17 1   
    32    16    33 1   
    33    17    18 2   
    34    17    19 1   
    35    19    26 1   
@<TRIPOS>SUBSTRUCTURE
     1 KZ9         1 TEMP              0 ****  ****    0 ROOT
