@<TRIPOS>MOLECULE
KZ9
   33    35     1     0     0
SMALL
No Charge or Current Charge


@<TRIPOS>ATOM
      1 OAB          4.8490     0.8320    -0.9810 oh         1 KZ9      -0.531100
      2 CAQ          3.6660     0.7910    -0.3050 ca         1 KZ9       0.140100
      3 CAG          2.4710     0.5590    -1.0030 ca         1 KZ9      -0.119000
      4 CAE          3.6450     0.9780     1.0870 ca         1 KZ9      -0.195000
      5 CAD          2.4240     0.9330     1.7810 ca         1 KZ9      -0.071000
      6 CAF          1.2270     0.7010     1.0820 ca         1 KZ9      -0.127000
      7 CAR          1.2410     0.5130    -0.3160 ca         1 KZ9      -0.079300
      8 CAS         -0.0610     0.2510    -1.0780 c6         1 KZ9       0.224200
      9 CAP         -0.8020    -0.9590    -0.5180 ce         1 KZ9      -0.310400
     10 CAM         -0.1350    -2.2820    -0.6030 c          1 KZ9       0.595300
     11 OAA          0.6840    -2.5730    -1.4650 o          1 KZ9      -0.525100
     12 CAI         -0.4590    -3.2100     0.5640 c6         1 KZ9      -0.178400
     13 CAH         -1.9990    -3.3580     0.6640 c6         1 KZ9      -0.065400
     14 CAJ         -2.7090    -1.9790     0.8090 c6         1 KZ9      -0.056200
     15 CAO         -1.9970    -0.8320     0.0910 c2         1 KZ9       0.104400
     16 NAK         -2.6090     0.4190     0.1580 ns         1 KZ9      -0.361100
     17 CAN         -2.1220     1.5710    -0.3870 cs         1 KZ9       0.462400
     18 SAC         -2.9430     3.0170    -0.3120 s          1 KZ9      -0.624400
     19 NAL         -0.9080     1.4500    -1.0020 ns         1 KZ9      -0.422900
     20 HAB          5.5680     1.0030    -0.3360 ho         1 KZ9       0.466000
     21 HAG          2.5020     0.4120    -2.0800 ha         1 KZ9       0.131000
     22 HAE          4.5670     1.1580     1.6350 ha         1 KZ9       0.115000
     23 HAD          2.4040     1.0770     2.8590 ha         1 KZ9       0.114000
     24 HAF          0.2860     0.6670     1.6270 ha         1 KZ9       0.115000
     25 HAS          0.1660     0.0700    -2.1390 h1         1 KZ9       0.087700
     26 HAL         -0.5360     2.3010    -1.4050 hn         1 KZ9       0.355500
     27 HAI1         0.0670    -4.1680     0.4620 hc         1 KZ9       0.075200
     28 HAI2        -0.1370    -2.7030     1.4840 hc         1 KZ9       0.075200
     29 HAH1        -2.3660    -3.8590    -0.2430 hc         1 KZ9       0.056200
     30 HAH2        -2.2690    -4.0110     1.5060 hc         1 KZ9       0.056200
     31 HAJ1        -3.7460    -2.0590     0.4550 hc         1 KZ9       0.066700
     32 HAJ2        -2.7710    -1.7270     1.8760 hc         1 KZ9       0.066700
     33 HAK         -3.5040     0.4930     0.6250 hn         1 KZ9       0.359500
@<TRIPOS>BOND
     1     1     2 1   
     2     1    20 1   
     3     2     3 ar  
     4     2     4 ar  
     5     3     7 ar  
     6     3    21 1   
     7     4     5 ar  
     8     4    22 1   
     9     5     6 ar  
    10     5    23 1   
    11     6     7 ar  
    12     6    24 1   
    13     7     8 1   
    14     8     9 1   
    15     8    19 1   
    16     8    25 1   
    17     9    10 1   
    18     9    15 2   
    19    10    11 2   
    20    10    12 1   
    21    12    13 1   
    22    12    27 1   
    23    12    28 1   
    24    13    14 1   
    25    13    29 1   
    26    13    30 1   
    27    14    15 1   
    28    14    31 1   
    29    14    32 1   
    30    15    16 1   
    31    16    17 1   
    32    16    33 1   
    33    17    18 2   
    34    17    19 1   
    35    19    26 1   
@<TRIPOS>SUBSTRUCTURE
     1 KZ9         1 TEMP              0 ****  ****    0 ROOT
