@<TRIPOS>MOLECULE
KZA
   68    74     1     0     0
SMALL
abcg2


@<TRIPOS>ATOM
      1 C2          34.2600    41.2050     0.5150 ca         1 KZA       0.189900
      2 C4          33.9990    39.2490     1.4730 ca         1 KZA       0.119500
      3 C5          35.1790    39.3680     2.1890 ca         1 KZA      -0.094600
      4 C6          35.9070    40.5560     1.9870 ca         1 KZA       0.454900
      5 C15         39.5880    35.3770    -2.0070 ca         1 KZA      -0.101600
      6 C18         37.5440    34.8530    -2.0160 cc         1 KZA       0.396700
      7 C14         39.5350    34.0470    -1.6230 ca         1 KZA       0.126500
      8 C21         32.2030    37.5190     1.3730 c5         1 KZA       0.303300
      9 C22         32.2540    37.1290    -0.1060 c5         1 KZA       0.130300
     10 C23         32.6040    35.6530    -0.0160 c5         1 KZA       0.147300
     11 C24         31.8470    35.2220     1.2370 c5         1 KZA       0.160300
     12 C25         32.3920    34.0090     1.9440 c3         1 KZA       0.206600
     13 C12         41.7180    33.9160    -1.4310 ca         1 KZA       0.188900
     14 C16         40.8700    35.9510    -2.0900 ca         1 KZA       0.454900
     15 C31         37.6760    32.4130    -1.2910 c5         1 KZA       0.065300
     16 C32         37.1560    32.3800     0.1510 c5         1 KZA       0.150300
     17 C33         35.6780    32.7030     0.0040 c5         1 KZA       0.188300
     18 C34         35.2490    31.9400    -1.2490 c5         1 KZA      -0.076700
     19 C35         33.9660    32.4410    -1.8730 c3         1 KZA       0.219600
     20 C36         36.4810    31.9890    -2.1710 c5         1 KZA      -0.084400
     21 C8          34.3590    37.4990     2.7390 cc         1 KZA       0.423700
     22 F22         30.9850    37.2560    -0.6390 f          1 KZA      -0.230000
     23 F32         37.2740    31.0810     0.6250 f          1 KZA      -0.239000
     24 N1          35.4100    41.4590     1.1340 nb         1 KZA      -0.301000
     25 N11         41.9220    35.1800    -1.7900 nb         1 KZA      -0.300000
     26 N13         40.5710    33.2680    -1.3190 nb         1 KZA      -0.227000
     27 N17         38.3300    35.8630    -2.2470 nd         1 KZA      -0.534100
     28 N19         38.2100    33.7170    -1.6380 na         1 KZA      -0.291300
     29 N3          33.4900    40.1360     0.6210 nb         1 KZA      -0.231000
     30 N6          37.0620    40.8090     2.6040 nv         1 KZA      -1.062900
     31 N7          35.3840    38.2640     2.9730 nd         1 KZA      -0.543100
     32 N9          33.4830    38.0360     1.8300 na         1 KZA      -0.322300
     33 O23         32.1520    34.8850    -1.1150 os         1 KZA      -0.549400
     34 O24         31.8940    36.3610     2.0860 os         1 KZA      -0.434000
     35 O25         33.7510    34.2480     2.3010 os         1 KZA      -0.586400
     36 O33         34.8850    32.2780     1.1100 os         1 KZA      -0.565400
     37 O35         34.1590    33.8010    -2.2860 os         1 KZA      -0.600400
     38 P25         34.8430    33.0940     2.4860 p5         1 KZA       1.109200
     39 P35         32.9780    34.8520    -2.4940 p5         1 KZA       1.107200
     40 S26         33.9780    31.5840     3.6210 sh         1 KZA      -0.465200
     41 S36         31.4870    33.9410    -3.6150 sh         1 KZA      -0.457200
     42 H1          33.9150    41.9790    -0.1620 h5         1 KZA       0.049100
     43 H2          42.0060    37.5770    -2.5430 hn         1 KZA       0.508500
     44 H3          40.3060    37.8060    -2.7320 hn         1 KZA       0.508500
     45 H4          36.4700    34.8820    -2.1210 h5         1 KZA       0.072800
     46 H5          31.4480    38.2930     1.5420 h2         1 KZA       0.122700
     47 H6          32.9430    37.7310    -0.6970 h1         1 KZA       0.131700
     48 H7          33.6860    35.5510     0.1270 h1         1 KZA       0.072700
     49 H8          30.8060    34.9950     0.9730 h1         1 KZA       0.099700
     50 H9          31.8120    33.8030     2.8460 h1         1 KZA       0.068200
     51 H10         32.2890    33.1480     1.2780 h1         1 KZA       0.068200
     52 H11         42.6120    33.3460    -1.2000 h5         1 KZA       0.048100
     53 H12         38.5100    31.7170    -1.3820 h1         1 KZA       0.120700
     54 H13         37.7020    33.0430     0.8230 h1         1 KZA       0.115700
     55 H14         35.5740    33.7840    -0.1440 h1         1 KZA       0.056700
     56 H15         35.0590    30.9020    -0.9610 hc         1 KZA       0.100700
     57 H16         33.1440    32.3610    -1.1570 h1         1 KZA       0.060200
     58 H17         33.7080    31.8390    -2.7470 h1         1 KZA       0.060200
     59 H18         36.3490    32.6740    -3.0080 hc         1 KZA       0.074200
     60 H19         36.6680    31.0090    -2.6060 hc         1 KZA       0.074200
     61 H20         34.1900    36.5400     3.1980 h5         1 KZA       0.082800
     62 H21         37.5370    41.6820     2.4510 hn         1 KZA       0.509000
     63 H22         37.4500    40.1650     3.2700 hn         1 KZA       0.509000
     64 H23         33.9200    32.3110     4.7460 hs         1 KZA       0.314800
     65 H24         32.2100    33.9000    -4.7430 hs         1 KZA       0.311800
     66 O26         36.1110    33.6760     2.9640 o          1 KZA      -0.464000
     67 N16         41.0710    37.2210    -2.4450 nv         1 KZA      -1.060900
     68 O36         33.5170    36.1380    -2.9690 o          1 KZA      -0.462000
@<TRIPOS>BOND
     1     1    24 ar  
     2     1    29 ar  
     3     1    42 1   
     4     2     3 ar  
     5     2    29 ar  
     6     2    32 1   
     7     3     4 ar  
     8     3    31 1   
     9     4    24 ar  
    10     4    30 1   
    11     5     7 ar  
    12     5    14 ar  
    13     5    27 1   
    14     6    27 2   
    15     6    28 1   
    16     6    45 1   
    17     7    26 ar  
    18     7    28 1   
    19     8     9 1   
    20     8    32 1   
    21     8    34 1   
    22     8    46 1   
    23     9    10 1   
    24     9    22 1   
    25     9    47 1   
    26    10    11 1   
    27    10    33 1   
    28    10    48 1   
    29    11    12 1   
    30    11    34 1   
    31    11    49 1   
    32    12    35 1   
    33    12    50 1   
    34    12    51 1   
    35    13    25 ar  
    36    13    26 ar  
    37    13    52 1   
    38    14    25 ar  
    39    14    67 1   
    40    15    16 1   
    41    15    20 1   
    42    15    28 1   
    43    15    53 1   
    44    16    17 1   
    45    16    23 1   
    46    16    54 1   
    47    17    18 1   
    48    17    36 1   
    49    17    55 1   
    50    18    19 1   
    51    18    20 1   
    52    18    56 1   
    53    19    37 1   
    54    19    57 1   
    55    19    58 1   
    56    20    59 1   
    57    20    60 1   
    58    21    31 2   
    59    21    32 1   
    60    21    61 1   
    61    30    62 1   
    62    30    63 1   
    63    33    39 1   
    64    35    38 1   
    65    36    38 1   
    66    37    39 1   
    67    38    40 1   
    68    38    66 2   
    69    39    41 1   
    70    39    68 2   
    71    40    64 1   
    72    41    65 1   
    73    43    67 1   
    74    44    67 1   
@<TRIPOS>SUBSTRUCTURE
     1 KZA         1 TEMP              0 ****  ****    0 ROOT
