@<TRIPOS>MOLECULE
KZA
   68    74     1     0     0
SMALL
No Charge or Current Charge


@<TRIPOS>ATOM
      1 C2          34.7240    39.6260     3.5580 ca         1 KZA       0.189900
      2 C4          34.8150    38.5330     1.5490 ca         1 KZA       0.119500
      3 C5          36.1500    38.2850     1.7480 ca         1 KZA      -0.094600
      4 C6          36.7450    38.7540     2.9370 ca         1 KZA       0.454900
      5 C15         38.3140    35.8600    -2.1570 ca         1 KZA      -0.101600
      6 C18         37.0520    34.2200    -2.7390 cc         1 KZA       0.396700
      7 C14         38.5490    34.8810    -1.2270 ca         1 KZA       0.126500
      8 C21         33.1740    37.9170    -0.2840 c5         1 KZA       0.303300
      9 C22         32.9650    36.9900    -1.5200 c5         1 KZA       0.130300
     10 C23         32.9260    35.6130    -0.7860 c5         1 KZA       0.147300
     11 C24         32.1260    35.9520     0.5100 c5         1 KZA       0.160300
     12 C25         32.5820    35.1950     1.7890 c3         1 KZA       0.206600
     13 C12         40.0780    36.2360    -0.1950 ca         1 KZA       0.188900
     14 C16         39.0250    37.0720    -2.0450 ca         1 KZA       0.454900
     15 C31         37.6120    32.5530    -0.8370 c5         1 KZA       0.065300
     16 C32         37.1130    32.7250     0.6300 c5         1 KZA       0.150300
     17 C33         35.6020    32.9770     0.3450 c5         1 KZA       0.188300
     18 C34         35.2350    31.7860    -0.5860 c5         1 KZA      -0.076700
     19 C35         33.9600    32.0010    -1.4350 c3         1 KZA       0.219600
     20 C36         36.5620    31.5190    -1.3900 c5         1 KZA      -0.084400
     21 C8          35.6920    37.3960    -0.1550 cc         1 KZA       0.423700
     22 F22         31.7470    37.2770    -2.1570 f          1 KZA      -0.230000
     23 F32         37.3330    31.5650     1.3880 f          1 KZA      -0.239000
     24 N1          36.0320    39.4270     3.8530 nb         1 KZA      -0.301000
     25 N11         39.9190    37.2650    -1.0620 nb         1 KZA      -0.300000
     26 N13         39.4370    35.0420    -0.2260 nb         1 KZA      -0.227000
     27 N17         37.3760    35.4700    -3.1140 nd         1 KZA      -0.534100
     28 N19         37.7380    33.8340    -1.5730 na         1 KZA      -0.291300
     29 N3          34.0720    39.2140     2.4450 nb         1 KZA      -0.231000
     30 N6          38.0580    38.5550     3.2280 nv         1 KZA      -1.062900
     31 N7          36.7210    37.5730     0.6920 nd         1 KZA      -0.543100
     32 N9          34.5080    37.9630     0.3440 na         1 KZA      -0.322300
     33 O23         32.1910    34.6140    -1.5410 os         1 KZA      -0.549400
     34 O24         32.2200    37.3960     0.6730 os         1 KZA      -0.434000
     35 O25         34.0170    35.2590     1.9100 os         1 KZA      -0.586400
     36 O33         34.7910    32.8740     1.5420 os         1 KZA      -0.565400
     37 O35         34.1520    33.1760    -2.2340 os         1 KZA      -0.600400
     38 P25         34.8730    34.0830     2.6120 p5         1 KZA       1.109200
     39 P35         32.9080    34.0010    -2.8520 p5         1 KZA       1.107200
     40 S26         33.6040    33.4080     4.1370 sh         1 KZA      -0.465200
     41 S36         31.5760    32.4920    -3.4320 sh         1 KZA      -0.457200
     42 H1          34.1360    40.1740     4.2930 h5         1 KZA       0.049100
     43 H2          39.6030    38.7980    -2.9710 hn         1 KZA       0.508500
     44 H3          38.3920    37.8820    -3.7980 hn         1 KZA       0.508500
     45 H4          36.3570    33.5750    -3.2590 h5         1 KZA       0.072800
     46 H5          32.9290    38.9570    -0.5360 h2         1 KZA       0.122700
     47 H6          33.7720    37.0740    -2.2590 h1         1 KZA       0.131700
     48 H7          33.9340    35.2530    -0.5650 h1         1 KZA       0.072700
     49 H8          31.0640    35.7170     0.3580 h1         1 KZA       0.099700
     50 H9          32.0920    35.6410     2.6640 h1         1 KZA       0.068200
     51 H10         32.2410    34.1540     1.7010 h1         1 KZA       0.068200
     52 H11         40.7990    36.3810     0.6070 h5         1 KZA       0.048100
     53 H12         38.6070    32.0870    -0.8280 h1         1 KZA       0.120700
     54 H13         37.6020    33.5660     1.1350 h1         1 KZA       0.115700
     55 H14         35.4530    33.9500    -0.1370 h1         1 KZA       0.056700
     56 H15         35.0170    30.9050     0.0310 hc         1 KZA       0.100700
     57 H16         33.0980    32.1140    -0.7620 h1         1 KZA       0.060200
     58 H17         33.7930    31.1180    -2.0670 h1         1 KZA       0.060200
     59 H18         36.4300    31.5690    -2.4760 hc         1 KZA       0.074200
     60 H19         36.9080    30.4970    -1.1950 hc         1 KZA       0.074200
     61 H20         35.7420    36.8780    -1.1050 h5         1 KZA       0.082800
     62 H21         38.3470    38.6400     4.1980 hn         1 KZA       0.509000
     63 H22         38.5500    37.8680     2.6640 hn         1 KZA       0.509000
     64 H23         34.6470    33.6140     4.9750 hs         1 KZA       0.314800
     65 H24         31.5720    33.0810    -4.6500 hs         1 KZA       0.311800
     66 O26         36.2360    34.4610     3.0660 o          1 KZA      -0.464000
     67 N16         38.8720    38.0950    -2.9280 nv         1 KZA      -1.060900
     68 O36         33.2610    34.9780    -3.9130 o          1 KZA      -0.462000
@<TRIPOS>BOND
     1     1    24 ar  
     2     1    29 ar  
     3     1    42 1   
     4     2     3 ar  
     5     2    29 ar  
     6     2    32 1   
     7     3     4 ar  
     8     3    31 1   
     9     4    24 ar  
    10     4    30 1   
    11     5     7 ar  
    12     5    14 ar  
    13     5    27 1   
    14     6    27 2   
    15     6    28 1   
    16     6    45 1   
    17     7    26 ar  
    18     7    28 1   
    19     8     9 1   
    20     8    32 1   
    21     8    34 1   
    22     8    46 1   
    23     9    10 1   
    24     9    22 1   
    25     9    47 1   
    26    10    11 1   
    27    10    33 1   
    28    10    48 1   
    29    11    12 1   
    30    11    34 1   
    31    11    49 1   
    32    12    35 1   
    33    12    50 1   
    34    12    51 1   
    35    13    25 ar  
    36    13    26 ar  
    37    13    52 1   
    38    14    25 ar  
    39    14    67 1   
    40    15    16 1   
    41    15    20 1   
    42    15    28 1   
    43    15    53 1   
    44    16    17 1   
    45    16    23 1   
    46    16    54 1   
    47    17    18 1   
    48    17    36 1   
    49    17    55 1   
    50    18    19 1   
    51    18    20 1   
    52    18    56 1   
    53    19    37 1   
    54    19    57 1   
    55    19    58 1   
    56    20    59 1   
    57    20    60 1   
    58    21    31 2   
    59    21    32 1   
    60    21    61 1   
    61    30    62 1   
    62    30    63 1   
    63    33    39 1   
    64    35    38 1   
    65    36    38 1   
    66    37    39 1   
    67    38    40 1   
    68    38    66 2   
    69    39    41 1   
    70    39    68 2   
    71    40    64 1   
    72    41    65 1   
    73    43    67 1   
    74    44    67 1   
@<TRIPOS>SUBSTRUCTURE
     1 KZA         1 TEMP              0 ****  ****    0 ROOT
