@<TRIPOS>MOLECULE
KZC
   40    42     1     0     0
SMALL
abcg2


@<TRIPOS>ATOM
      1 N1          10.0990    -1.4980    22.1900 nu         1 KZC      -0.940200
      2 C4          10.8670     0.5270    23.2460 ca         1 KZC      -0.177500
      3 C5          11.8900     1.3240    23.7320 ca         1 KZC      -0.070500
      4 C6          13.2220     0.9240    23.6180 ca         1 KZC      -0.155000
      5 C7          13.5060    -0.2900    23.0040 ca         1 KZC      -0.070500
      6 C8          12.4880    -1.1010    22.5090 ca         1 KZC      -0.177500
      7 C10          5.8760    -0.9910    18.5060 cc         1 KZC      -0.268200
      8 C13          5.0340     2.7460    20.2070 ca         1 KZC      -0.167000
      9 C15          6.1000     2.0700    22.2680 ca         1 KZC      -0.145000
     10 C17          5.9750     0.5060    20.4240 ca         1 KZC      -0.118800
     11 N            8.1290    -2.1990    20.1540 ns         1 KZC      -0.511900
     12 N2           4.9360     1.1910    18.3670 ns         1 KZC      -0.372100
     13 C1           8.9820    -3.1790    20.8090 c3         1 KZC       0.086000
     14 C11          5.1820     0.0070    17.7130 c          1 KZC       0.557200
     15 O1           4.8270    -0.1580    16.5420 o          1 KZC      -0.548000
     16 C2          10.3110    -2.5660    21.2300 c3         1 KZC       0.184800
     17 C16          6.3680     0.8260    21.7350 ca         1 KZC      -0.044000
     18 C9           6.2420    -0.7590    19.7890 cd         1 KZC      -0.039400
     19 C12          5.3070     1.4860    19.6600 ca         1 KZC       0.102600
     20 C14          5.4270     3.0300    21.4990 ca         1 KZC      -0.051000
     21 C            6.9050    -1.8500    20.5870 c          1 KZC       0.599300
     22 O            6.3390    -2.3460    21.5590 o          1 KZC      -0.578100
     23 C3          11.1470    -0.7050    22.6280 ca         1 KZC       0.297000
     24 H1           9.2470    -0.9780    22.0350 hn         1 KZC       0.460000
     25 H2           9.8350     0.8460    23.3370 ha         1 KZC       0.109000
     26 H3          11.6470     2.2700    24.2010 ha         1 KZC       0.109000
     27 H4          14.0200     1.5500    23.9980 ha         1 KZC       0.114000
     28 H5          14.5340    -0.6170    22.9010 ha         1 KZC       0.109000
     29 H6          12.7400    -2.0380    22.0330 ha         1 KZC       0.109000
     30 H7           6.0800    -1.9360    18.0210 ha         1 KZC       0.214000
     31 H8           4.5180     3.4850    19.6050 ha         1 KZC       0.122000
     32 H9           6.4100     2.3050    23.2770 ha         1 KZC       0.124000
     33 H10          8.4960    -1.7230    19.3430 hn         1 KZC       0.319500
     34 H11          4.4580     1.9030    17.8300 hn         1 KZC       0.331500
     35 H12          8.4410    -3.5550    21.6750 h1         1 KZC       0.073700
     36 H13          9.1720    -4.0130    20.1310 h1         1 KZC       0.073700
     37 H14         10.9180    -3.3560    21.6780 h1         1 KZC       0.044200
     38 H15         10.8490    -2.2090    20.3400 h1         1 KZC       0.044200
     39 H16          6.8820     0.0840    22.3300 ha         1 KZC       0.128000
     40 H17          5.2150     4.0050    21.9190 ha         1 KZC       0.120000
@<TRIPOS>BOND
     1     1    16 1   
     2     1    23 1   
     3     1    24 1   
     4     2     3 ar  
     5     2    23 ar  
     6     2    25 1   
     7     3     4 ar  
     8     3    26 1   
     9     4     5 ar  
    10     4    27 1   
    11     5     6 ar  
    12     5    28 1   
    13     6    23 ar  
    14     6    29 1   
    15     7    14 1   
    16     7    18 2   
    17     7    30 1   
    18     8    19 ar  
    19     8    20 ar  
    20     8    31 1   
    21     9    17 ar  
    22     9    20 ar  
    23     9    32 1   
    24    10    17 ar  
    25    10    18 1   
    26    10    19 ar  
    27    11    13 1   
    28    11    21 1   
    29    11    33 1   
    30    12    14 1   
    31    12    19 1   
    32    12    34 1   
    33    13    16 1   
    34    13    35 1   
    35    13    36 1   
    36    14    15 2   
    37    16    37 1   
    38    16    38 1   
    39    17    39 1   
    40    18    21 1   
    41    20    40 1   
    42    21    22 2   
@<TRIPOS>SUBSTRUCTURE
     1 KZC         1 TEMP              0 ****  ****    0 ROOT
