@<TRIPOS>MOLECULE
KZC
   40    42     1     0     0
SMALL
No Charge or Current Charge


@<TRIPOS>ATOM
      1 N1          10.3240    -1.7470    22.1620 nu         1 KZC      -0.940200
      2 C4          11.1190     0.2300    23.2820 ca         1 KZC      -0.177500
      3 C5          12.1710     1.0410    23.7430 ca         1 KZC      -0.070500
      4 C6          13.5030     0.6490    23.5270 ca         1 KZC      -0.155000
      5 C7          13.7810    -0.5510    22.8510 ca         1 KZC      -0.070500
      6 C8          12.7260    -1.3590    22.3920 ca         1 KZC      -0.177500
      7 C10          6.5020    -0.5910    18.6160 cc         1 KZC      -0.268200
      8 C13          4.3680     2.7580    20.0330 ca         1 KZC      -0.167000
      9 C15          5.0820     2.3660    22.3090 ca         1 KZC      -0.145000
     10 C17          5.8300     0.8390    20.5290 ca         1 KZC      -0.118800
     11 N            8.0540    -2.3060    20.1980 ns         1 KZC      -0.511900
     12 N2           5.0910     1.2870    18.2590 ns         1 KZC      -0.372100
     13 C1           8.9210    -3.3260    20.8250 c3         1 KZC       0.086000
     14 C11          5.7370     0.2400    17.6770 c          1 KZC       0.557200
     15 O1           5.6710     0.0270    16.4770 o          1 KZC      -0.548000
     16 C2          10.3510    -2.8200    21.1530 c3         1 KZC       0.184800
     17 C16          5.8100     1.2370    21.8920 ca         1 KZC      -0.044000
     18 C9           6.5790    -0.3500    19.9940 cd         1 KZC      -0.039400
     19 C12          5.0940     1.6310    19.6150 ca         1 KZC       0.102600
     20 C14          4.3590     3.1280    21.3830 ca         1 KZC      -0.051000
     21 C            7.3930    -1.2920    20.8720 c          1 KZC       0.599300
     22 O            7.4980    -1.2110    22.0860 o          1 KZC      -0.578100
     23 C3          11.3910    -0.9690    22.6050 ca         1 KZC       0.297000
     24 H1           9.3890    -1.3780    22.3730 hn         1 KZC       0.460000
     25 H2          10.0900     0.5380    23.4520 ha         1 KZC       0.109000
     26 H3          11.9550     1.9700    24.2670 ha         1 KZC       0.109000
     27 H4          14.3190     1.2740    23.8820 ha         1 KZC       0.114000
     28 H5          14.8130    -0.8560    22.6840 ha         1 KZC       0.109000
     29 H6          12.9520    -2.2860    21.8740 ha         1 KZC       0.109000
     30 H7           6.9890    -1.4150    18.1140 ha         1 KZC       0.214000
     31 H8           3.8100     3.3490    19.3110 ha         1 KZC       0.122000
     32 H9           5.0820     2.6500    23.3590 ha         1 KZC       0.124000
     33 H10          7.9540    -2.3300    19.1930 hn         1 KZC       0.319500
     34 H11          4.5550     1.8770    17.6360 hn         1 KZC       0.331500
     35 H12          8.4440    -3.6920    21.7440 h1         1 KZC       0.073700
     36 H13          9.0020    -4.1780    20.1370 h1         1 KZC       0.073700
     37 H14         10.9510    -3.6640    21.5210 h1         1 KZC       0.044200
     38 H15         10.8180    -2.4540    20.2280 h1         1 KZC       0.044200
     39 H16          6.3480     0.7010    22.6630 ha         1 KZC       0.128000
     40 H17          3.7970     4.0010    21.7100 ha         1 KZC       0.120000
@<TRIPOS>BOND
     1     1    16 1   
     2     1    23 1   
     3     1    24 1   
     4     2     3 ar  
     5     2    23 ar  
     6     2    25 1   
     7     3     4 ar  
     8     3    26 1   
     9     4     5 ar  
    10     4    27 1   
    11     5     6 ar  
    12     5    28 1   
    13     6    23 ar  
    14     6    29 1   
    15     7    14 1   
    16     7    18 2   
    17     7    30 1   
    18     8    19 ar  
    19     8    20 ar  
    20     8    31 1   
    21     9    17 ar  
    22     9    20 ar  
    23     9    32 1   
    24    10    17 ar  
    25    10    18 1   
    26    10    19 ar  
    27    11    13 1   
    28    11    21 1   
    29    11    33 1   
    30    12    14 1   
    31    12    19 1   
    32    12    34 1   
    33    13    16 1   
    34    13    35 1   
    35    13    36 1   
    36    14    15 2   
    37    16    37 1   
    38    16    38 1   
    39    17    39 1   
    40    18    21 1   
    41    20    40 1   
    42    21    22 2   
@<TRIPOS>SUBSTRUCTURE
     1 KZC         1 TEMP              0 ****  ****    0 ROOT
