@<TRIPOS>MOLECULE
KZD
   87    91     1     0     0
SMALL
No Charge or Current Charge


@<TRIPOS>ATOM
      1 C13         -4.0560    33.5190     3.9200 c3         1 KZD      -0.081600
      2 C17         -2.4620    27.5450     2.9220 c          1 KZD       0.716000
      3 C16         -2.0600    28.2220     4.2890 c3         1 KZD       0.065600
      4 C15          2.2380    30.9830     4.3050 ca         1 KZD      -0.020000
      5 C22         -1.9350    29.0720     7.2170 c3         1 KZD      -0.101433
      6 C23         -4.2870    29.2320     6.1740 c3         1 KZD      -0.101433
      7 C24         -3.6320    27.2270     7.5860 c3         1 KZD      -0.101433
      8 C11          0.1820    27.1650     4.8520 cc         1 KZD      -0.040300
      9 C12         -0.5390    28.3270     4.4940 cd         1 KZD      -0.075300
     10 C34          4.5150    37.5880     4.0570 ca         1 KZD      -0.086300
     11 C27          3.7570    32.7080     5.1450 ca         1 KZD      -0.177000
     12 C33          5.0490    36.7300     2.9140 c3         1 KZD      -0.030100
     13 C1          -2.6150    31.7310     2.8120 c6         1 KZD      -0.070900
     14 C2          -1.2170    31.0650     2.6930 c6         1 KZD       0.206300
     15 N3          -0.6300    30.7920     4.0360 nh         1 KZD      -0.835400
     16 C4          -0.5660    31.9830     4.9320 c6         1 KZD       0.206300
     17 C5          -1.9570    32.6510     5.0770 c6         1 KZD      -0.070900
     18 C6          -2.5990    33.0120     3.7030 c6         1 KZD      -0.053000
     19 C7           0.1410    29.6290     4.3060 cd         1 KZD       0.352000
     20 C8           1.5280    29.7010     4.4890 cc         1 KZD      -0.112000
     21 C9           2.1770    28.5640     5.0410 cc         1 KZD      -0.044000
     22 N10          1.5060    27.4040     5.2480 na         1 KZD       0.127100
     23 C14         -1.8170    34.1720     3.0050 c3         1 KZD      -0.081600
     24 O19         -3.4670    26.8430     2.8760 o          1 KZD      -0.711500
     25 O20         -2.6760    27.5410     5.4380 os         1 KZD      -0.447000
     26 C26          3.0800    31.4880     5.3180 ca         1 KZD      -0.054500
     27 C28          3.6220    33.4340     3.9530 ca         1 KZD       0.123100
     28 C29          2.8130    32.9220     2.9190 ca         1 KZD      -0.177000
     29 C30          2.1360    31.7020     3.0960 ca         1 KZD      -0.054500
     30 O31          4.3030    34.6280     3.8440 os         1 KZD      -0.362100
     31 C32          4.2070    35.4600     2.6730 c3         1 KZD       0.167600
     32 C35          3.4220    38.4520     3.8420 ca         1 KZD      -0.075500
     33 C36          2.9260    39.2410     4.8950 ca         1 KZD      -0.147000
     34 C37          3.5200    39.1660     6.1640 ca         1 KZD       0.159000
     35 C38          4.6070    38.3080     6.3880 ca         1 KZD      -0.147000
     36 C39          5.1050    37.5190     5.3350 ca         1 KZD      -0.075500
     37 N41          3.4440    28.3920     5.3810 nd         1 KZD      -0.331600
     38 C42          3.5480    27.0810     5.8190 cd         1 KZD       0.047400
     39 C43          2.3410    26.4280     5.7320 cc         1 KZD      -0.295100
     40 C44          4.8580    26.5150     6.2990 c3         1 KZD      -0.005900
     41 F40          3.0420    39.9230     7.1750 f          1 KZD      -0.191000
     42 H1          -4.0790    34.4150     4.5520 hc         1 KZD       0.028200
     43 H2          -4.5400    33.7710     2.9690 hc         1 KZD       0.028200
     44 H3          -4.6750    32.7570     4.4110 hc         1 KZD       0.028200
     45 H4          -2.4840    29.2210     4.2100 h1         1 KZD       0.053700
     46 H5          -2.2220    29.4990     8.1850 hc         1 KZD       0.034811
     47 H6          -1.0750    28.4120     7.3800 hc         1 KZD       0.034811
     48 H7          -1.6220    29.9010     6.5770 hc         1 KZD       0.034811
     49 H8          -4.7610    29.6710     7.0600 hc         1 KZD       0.034811
     50 H9          -3.9440    30.0590     5.5450 hc         1 KZD       0.034811
     51 H10         -5.0530    28.6750     5.6220 hc         1 KZD       0.034811
     52 H11         -4.0040    27.6950     8.5050 hc         1 KZD       0.034811
     53 H12         -4.4500    26.6440     7.1460 hc         1 KZD       0.034811
     54 H13         -2.8270    26.5340     7.8610 hc         1 KZD       0.034811
     55 H14          4.3860    33.0940     5.9430 ha         1 KZD       0.111500
     56 H15          6.0890    36.4370     3.1010 hc         1 KZD       0.055200
     57 H16          5.0630    37.3160     1.9870 hc         1 KZD       0.055200
     58 H17         -2.9860    31.9740     1.8070 hc         1 KZD       0.044950
     59 H18         -3.3270    31.0050     3.2250 hc         1 KZD       0.044950
     60 H19         -1.3020    30.1420     2.1070 h1         1 KZD       0.047950
     61 H20         -0.5630    31.7360     2.1210 h1         1 KZD       0.047950
     62 H21         -0.2010    31.6940     5.9280 h1         1 KZD       0.047950
     63 H22          0.1430    32.7240     4.5370 h1         1 KZD       0.047950
     64 H23         -1.8630    33.5510     5.7000 hc         1 KZD       0.044950
     65 H24         -2.6190    31.9720     5.6290 hc         1 KZD       0.044950
     66 H25         -1.8120    35.0770     3.6250 hc         1 KZD       0.028200
     67 H26         -0.7710    33.9130     2.8070 hc         1 KZD       0.028200
     68 H27         -2.2710    34.4370     2.0430 hc         1 KZD       0.028200
     69 H29          0.3290    25.0150     4.5530 hc         1 KZD       0.061700
     70 H30         -0.6010    25.4930     5.9890 hc         1 KZD       0.061700
     71 H31         -1.2960    25.6190     4.3670 hc         1 KZD       0.061700
     72 H32          3.1870    30.9490     6.2560 ha         1 KZD       0.122500
     73 H33          2.7020    33.4450     1.9740 ha         1 KZD       0.111500
     74 H34          1.5490    31.2980     2.2780 ha         1 KZD       0.122500
     75 H35          3.1650    35.7460     2.4810 h1         1 KZD       0.038200
     76 H36          4.5930    34.9310     1.7920 h1         1 KZD       0.038200
     77 H37          2.9580    38.5120     2.8590 ha         1 KZD       0.117500
     78 H38          2.0830    39.9070     4.7290 ha         1 KZD       0.129000
     79 H39          5.0610    38.2540     7.3740 ha         1 KZD       0.129000
     80 H40          5.9450    36.8510     5.5140 ha         1 KZD       0.117500
     81 H41          2.0500    25.4140     5.9760 h4         1 KZD       0.222000
     82 H42          5.6080    26.5300     5.4990 hc         1 KZD       0.034033
     83 H43          5.2510    27.0950     7.1420 hc         1 KZD       0.034033
     84 H44          4.7430    25.4770     6.6320 hc         1 KZD       0.034033
     85 C21         -3.1210    28.2970     6.5940 c3         1 KZD       0.184000
     86 C25         -0.3790    25.7540     4.9470 c3         1 KZD      -0.048800
     87 O18         -1.7300    27.6940     1.9510 o          1 KZD      -0.711500
@<TRIPOS>BOND
     1     1    18 1   
     2     1    42 1   
     3     1    43 1   
     4     1    44 1   
     5     2     3 1   
     6     2    24 1   
     7     2    87 1   
     8     3     9 1   
     9     3    25 1   
    10     3    45 1   
    11     4    20 1   
    12     4    26 ar  
    13     4    29 ar  
    14     5    46 1   
    15     5    47 1   
    16     5    48 1   
    17     5    85 1   
    18     6    49 1   
    19     6    50 1   
    20     6    51 1   
    21     6    85 1   
    22     7    52 1   
    23     7    53 1   
    24     7    54 1   
    25     7    85 1   
    26     8     9 2   
    27     8    22 1   
    28     8    86 1   
    29     9    19 1   
    30    10    12 1   
    31    10    32 ar  
    32    10    36 ar  
    33    11    26 ar  
    34    11    27 ar  
    35    11    55 1   
    36    12    31 1   
    37    12    56 1   
    38    12    57 1   
    39    13    14 1   
    40    13    18 1   
    41    13    58 1   
    42    13    59 1   
    43    14    15 1   
    44    14    60 1   
    45    14    61 1   
    46    15    16 1   
    47    15    19 1   
    48    16    17 1   
    49    16    62 1   
    50    16    63 1   
    51    17    18 1   
    52    17    64 1   
    53    17    65 1   
    54    18    23 1   
    55    19    20 2   
    56    20    21 1   
    57    21    22 1   
    58    21    37 2   
    59    22    39 1   
    60    23    66 1   
    61    23    67 1   
    62    23    68 1   
    63    25    85 1   
    64    26    72 1   
    65    27    28 ar  
    66    27    30 1   
    67    28    29 ar  
    68    28    73 1   
    69    29    74 1   
    70    30    31 1   
    71    31    75 1   
    72    31    76 1   
    73    32    33 ar  
    74    32    77 1   
    75    33    34 ar  
    76    33    78 1   
    77    34    35 ar  
    78    34    41 1   
    79    35    36 ar  
    80    35    79 1   
    81    36    80 1   
    82    37    38 1   
    83    38    39 2   
    84    38    40 1   
    85    39    81 1   
    86    40    82 1   
    87    40    83 1   
    88    40    84 1   
    89    69    86 1   
    90    70    86 1   
    91    71    86 1   
@<TRIPOS>SUBSTRUCTURE
     1 KZD         1 TEMP              0 ****  ****    0 ROOT
