@<TRIPOS>MOLECULE
KZD
   87    91     1     0     0
SMALL
abcg2


@<TRIPOS>ATOM
      1 C13         -3.7160    33.7720     4.0480 c3         1 KZD      -0.081600
      2 C17         -2.5410    27.5780     3.0990 c          1 KZD       0.716000
      3 C16         -2.0700    28.2650     4.4220 c3         1 KZD       0.065600
      4 C15          2.2740    30.9400     4.5090 ca         1 KZD      -0.020000
      5 C22         -2.0880    29.3000     7.2570 c3         1 KZD      -0.101433
      6 C23         -4.3440    29.2860     6.1350 c3         1 KZD      -0.101433
      7 C24         -3.6740    27.4010     7.6400 c3         1 KZD      -0.101433
      8 C11          0.1540    27.1960     4.7570 cc         1 KZD      -0.040300
      9 C12         -0.5580    28.3460     4.5370 cd         1 KZD      -0.075300
     10 C34          4.3010    37.4660     4.0300 ca         1 KZD      -0.086300
     11 C27          3.6280    32.7230     5.4360 ca         1 KZD      -0.177000
     12 C33          5.1190    36.5600     3.1460 c3         1 KZD      -0.030100
     13 C1          -2.4610    31.8700     3.0050 c6         1 KZD      -0.070900
     14 C2          -1.1780    31.0490     2.9560 c6         1 KZD       0.206300
     15 N3          -0.6840    30.7750     4.3060 nh         1 KZD      -0.835400
     16 C4          -0.4350    31.9810     5.0880 c6         1 KZD       0.206300
     17 C5          -1.7260    32.7860     5.2050 c6         1 KZD      -0.070900
     18 C6          -2.3290    33.1590     3.8380 c6         1 KZD      -0.053000
     19 C7           0.1130    29.6230     4.4900 cd         1 KZD       0.352000
     20 C8           1.4870    29.6930     4.6730 cc         1 KZD      -0.112000
     21 C9           2.1930    28.5030     4.9580 cc         1 KZD      -0.044000
     22 N10          1.5060    27.2960     4.9820 na         1 KZD       0.127100
     23 C14         -1.4430    34.1830     3.1140 c3         1 KZD      -0.081600
     24 O19         -3.5200    26.8020     3.1470 o          1 KZD      -0.711500
     25 O20         -2.6440    27.6210     5.5560 os         1 KZD      -0.447000
     26 C26          2.9330    31.5360     5.5890 ca         1 KZD      -0.054500
     27 C28          3.6930    33.3440     4.1850 ca         1 KZD       0.123100
     28 C29          3.0700    32.7470     3.0900 ca         1 KZD      -0.177000
     29 C30          2.3710    31.5550     3.2650 ca         1 KZD      -0.054500
     30 O31          4.3810    34.5170     4.1350 os         1 KZD      -0.362100
     31 C32          4.4460    35.2200     2.8910 c3         1 KZD       0.167600
     32 C35          3.2180    38.1750     3.5060 ca         1 KZD      -0.075500
     33 C36          2.4240    38.9830     4.3120 ca         1 KZD      -0.147000
     34 C37          2.7320    39.0700     5.6570 ca         1 KZD       0.159000
     35 C38          3.7950    38.3900     6.2190 ca         1 KZD      -0.147000
     36 C39          4.5760    37.5870     5.3920 ca         1 KZD      -0.075500
     37 N41          3.4980    28.3030     5.1740 nd         1 KZD      -0.331600
     38 C42          3.6500    26.9520     5.3470 cd         1 KZD       0.047400
     39 C43          2.4440    26.3050     5.2320 cc         1 KZD      -0.295100
     40 C44          4.9840    26.3430     5.6190 c3         1 KZD      -0.005900
     41 F40          1.9610    39.8590     6.4550 f          1 KZD      -0.191000
     42 H1          -3.6520    34.6860     4.6440 hc         1 KZD       0.028200
     43 H2          -4.1790    34.0250     3.0900 hc         1 KZD       0.028200
     44 H3          -4.3750    33.0720     4.5690 hc         1 KZD       0.028200
     45 H4          -2.4370    29.2870     4.3540 h1         1 KZD       0.053700
     46 H5          -2.4950    29.8410     8.1140 hc         1 KZD       0.034811
     47 H6          -1.2560    28.6830     7.6000 hc         1 KZD       0.034811
     48 H7          -1.7100    30.0290     6.5440 hc         1 KZD       0.034811
     49 H8          -4.8090    29.7990     6.9780 hc         1 KZD       0.034811
     50 H9          -4.0210    30.0480     5.4250 hc         1 KZD       0.034811
     51 H10         -5.0950    28.6570     5.6530 hc         1 KZD       0.034811
     52 H11         -4.1020    27.9010     8.5100 hc         1 KZD       0.034811
     53 H12         -4.4400    26.7670     7.1910 hc         1 KZD       0.034811
     54 H13         -2.8490    26.7690     7.9720 hc         1 KZD       0.034811
     55 H14          4.1210    33.1900     6.2790 ha         1 KZD       0.111500
     56 H15          6.1010    36.3840     3.5900 hc         1 KZD       0.055200
     57 H16          5.2800    37.0310     2.1740 hc         1 KZD       0.055200
     58 H17         -2.7700    32.1190     1.9860 hc         1 KZD       0.044950
     59 H18         -3.2530    31.2540     3.4410 hc         1 KZD       0.044950
     60 H19         -1.3600    30.0980     2.4570 h1         1 KZD       0.047950
     61 H20         -0.4110    31.5810     2.3750 h1         1 KZD       0.047950
     62 H21         -0.0870    31.6850     6.0780 h1         1 KZD       0.047950
     63 H22          0.3480    32.6080     4.6500 h1         1 KZD       0.047950
     64 H23         -1.5310    33.6960     5.7800 hc         1 KZD       0.044950
     65 H24         -2.4600    32.1970     5.7620 hc         1 KZD       0.044950
     66 H25         -1.3420    35.0910     3.7140 hc         1 KZD       0.028200
     67 H26         -0.4410    33.8020     2.9170 hc         1 KZD       0.028200
     68 H27         -1.8880    34.4580     2.1540 hc         1 KZD       0.028200
     69 H29          0.1300    25.1830     4.0610 hc         1 KZD       0.061700
     70 H30         -0.2560    25.3550     5.7700 hc         1 KZD       0.061700
     71 H31         -1.4570    25.7960     4.5560 hc         1 KZD       0.061700
     72 H32          2.8770    31.0740     6.5660 ha         1 KZD       0.122500
     73 H33          3.1170    33.1940     2.1080 ha         1 KZD       0.111500
     74 H34          1.8830    31.1050     2.4110 ha         1 KZD       0.122500
     75 H35          3.4360    35.3700     2.4990 h1         1 KZD       0.038200
     76 H36          5.0180    34.6330     2.1670 h1         1 KZD       0.038200
     77 H37          2.9900    38.0980     2.4490 ha         1 KZD       0.117500
     78 H38          1.5860    39.5360     3.9080 ha         1 KZD       0.129000
     79 H39          4.0060    38.4870     7.2760 ha         1 KZD       0.129000
     80 H40          5.4120    37.0450     5.8180 ha         1 KZD       0.117500
     81 H41          2.1830    25.2660     5.3090 h4         1 KZD       0.222000
     82 H42          5.6870    26.5720     4.8140 hc         1 KZD       0.034033
     83 H43          5.4100    26.7360     6.5450 hc         1 KZD       0.034033
     84 H44          4.9050    25.2590     5.7100 hc         1 KZD       0.034033
     85 C21         -3.1750    28.4290     6.6280 c3         1 KZD       0.184000
     86 C25         -0.3990    25.8090     4.7850 c3         1 KZD      -0.048800
     87 O18         -1.9010    27.9100     2.0680 o          1 KZD      -0.711500
@<TRIPOS>BOND
     1     1    18 1   
     2     1    42 1   
     3     1    43 1   
     4     1    44 1   
     5     2     3 1   
     6     2    24 1   
     7     2    87 1   
     8     3     9 1   
     9     3    25 1   
    10     3    45 1   
    11     4    20 1   
    12     4    26 ar  
    13     4    29 ar  
    14     5    46 1   
    15     5    47 1   
    16     5    48 1   
    17     5    85 1   
    18     6    49 1   
    19     6    50 1   
    20     6    51 1   
    21     6    85 1   
    22     7    52 1   
    23     7    53 1   
    24     7    54 1   
    25     7    85 1   
    26     8     9 2   
    27     8    22 1   
    28     8    86 1   
    29     9    19 1   
    30    10    12 1   
    31    10    32 ar  
    32    10    36 ar  
    33    11    26 ar  
    34    11    27 ar  
    35    11    55 1   
    36    12    31 1   
    37    12    56 1   
    38    12    57 1   
    39    13    14 1   
    40    13    18 1   
    41    13    58 1   
    42    13    59 1   
    43    14    15 1   
    44    14    60 1   
    45    14    61 1   
    46    15    16 1   
    47    15    19 1   
    48    16    17 1   
    49    16    62 1   
    50    16    63 1   
    51    17    18 1   
    52    17    64 1   
    53    17    65 1   
    54    18    23 1   
    55    19    20 2   
    56    20    21 1   
    57    21    22 1   
    58    21    37 2   
    59    22    39 1   
    60    23    66 1   
    61    23    67 1   
    62    23    68 1   
    63    25    85 1   
    64    26    72 1   
    65    27    28 ar  
    66    27    30 1   
    67    28    29 ar  
    68    28    73 1   
    69    29    74 1   
    70    30    31 1   
    71    31    75 1   
    72    31    76 1   
    73    32    33 ar  
    74    32    77 1   
    75    33    34 ar  
    76    33    78 1   
    77    34    35 ar  
    78    34    41 1   
    79    35    36 ar  
    80    35    79 1   
    81    36    80 1   
    82    37    38 1   
    83    38    39 2   
    84    38    40 1   
    85    39    81 1   
    86    40    82 1   
    87    40    83 1   
    88    40    84 1   
    89    69    86 1   
    90    70    86 1   
    91    71    86 1   
@<TRIPOS>SUBSTRUCTURE
     1 KZD         1 TEMP              0 ****  ****    0 ROOT
