@<TRIPOS>MOLECULE
KZF
   30    30     1     0     0
SMALL
abcg2


@<TRIPOS>ATOM
      1 C3           3.5370   -38.7210    15.0320 c6         1 KZF      -0.071900
      2 C2           2.1820   -38.0550    15.2440 c6         1 KZF      -0.097900
      3 C1           2.0970   -36.7580    14.4520 c6         1 KZF       0.106300
      4 C6           2.3450   -36.9820    12.9680 c6         1 KZF      -0.097900
      5 N            0.7500   -36.1360    14.6900 ny         1 KZF      -0.824000
      6 C8           0.5500   -34.7800    14.1030 c3         1 KZF       0.139600
      7 C7          -0.7100   -34.1420    14.6470 c3         1 KZF      -0.388400
      8 S           -0.9550   -32.4920    13.9400 s6         1 KZF       1.305600
      9 O1          -1.1180   -32.7210    12.4930 o          1 KZF      -0.659533
     10 O2           0.2700   -31.7450    14.2780 o          1 KZF      -0.659533
     11 O3          -2.1650   -31.9800    14.6010 o          1 KZF      -0.659533
     12 C5           3.6960   -37.6620    12.7600 c6         1 KZF      -0.071900
     13 C4           3.8090   -38.9590    13.5510 c6         1 KZF      -0.083400
     14 H3'2         3.5640   -39.6620    15.5840 hc         1 KZF       0.059700
     15 H3'1         4.3230   -38.0880    15.4540 hc         1 KZF       0.059700
     16 H2'2         2.0190   -37.8560    16.3070 hc         1 KZF       0.061200
     17 H2'1         1.3850   -38.7320    14.9170 hc         1 KZF       0.061200
     18 HC'1         2.8170   -36.0360    14.8460 hx         1 KZF       0.100700
     19 H6'2         2.3290   -36.0380    12.4200 hc         1 KZF       0.061200
     20 H6'1         1.5450   -37.6090    12.5590 hc         1 KZF       0.061200
     21 HN           0.6030   -36.0790    15.7000 hn         1 KZF       0.488500
     22 H9           0.0200   -36.7670    14.3470 hn         1 KZF       0.488500
     23 HC11         0.4970   -34.8920    13.0230 hx         1 KZF       0.106700
     24 HC12         1.4290   -34.1910    14.3570 hx         1 KZF       0.106700
     25 HC21        -0.6550   -34.0310    15.7320 h1         1 KZF       0.087200
     26 HC22        -1.5920   -34.7390    14.4060 h1         1 KZF       0.087200
     27 H5'2         3.8400   -37.8490    11.6950 hc         1 KZF       0.059700
     28 H5'1         4.4940   -36.9760    13.0640 hc         1 KZF       0.059700
     29 H4'2         3.0910   -39.6870    13.1620 hc         1 KZF       0.056200
     30 H4'1         4.8010   -39.3950    13.4160 hc         1 KZF       0.056200
@<TRIPOS>BOND
     1     1     2 1   
     2     1    13 1   
     3     1    14 1   
     4     1    15 1   
     5     2     3 1   
     6     2    16 1   
     7     2    17 1   
     8     3     4 1   
     9     3     5 1   
    10     3    18 1   
    11     4    12 1   
    12     4    19 1   
    13     4    20 1   
    14     5     6 1   
    15     5    21 1   
    16     5    22 1   
    17     6     7 1   
    18     6    23 1   
    19     6    24 1   
    20     7     8 1   
    21     7    25 1   
    22     7    26 1   
    23     8     9 1   
    24     8    10 1   
    25     8    11 1   
    26    12    13 1   
    27    12    27 1   
    28    12    28 1   
    29    13    29 1   
    30    13    30 1   
@<TRIPOS>SUBSTRUCTURE
     1 KZF         1 TEMP              0 ****  ****    0 ROOT
