@<TRIPOS>MOLECULE
KZF
   30    30     1     0     0
SMALL
No Charge or Current Charge


@<TRIPOS>ATOM
      1 C3           3.5550   -38.7920    15.0250 c6         1 KZF      -0.071900
      2 C2           2.2470   -38.0100    15.3000 c6         1 KZF      -0.097900
      3 C1           2.2120   -36.6940    14.4890 c6         1 KZF       0.106300
      4 C6           2.3670   -36.9740    12.9750 c6         1 KZF      -0.097900
      5 N            0.8520   -36.0110    14.7410 ny         1 KZF      -0.824000
      6 C8           0.6370   -34.6260    14.1700 c3         1 KZF       0.139600
      7 C7          -0.7560   -34.1580    14.5710 c3         1 KZF      -0.388400
      8 S           -1.0920   -32.5160    13.9250 s6         1 KZF       1.305600
      9 O1          -0.9720   -32.6890    12.4720 o          1 KZF      -0.659533
     10 O2          -0.0440   -31.6870    14.5350 o          1 KZF      -0.659533
     11 O3          -2.4530   -32.2350    14.4010 o          1 KZF      -0.659533
     12 C5           3.6730   -37.7560    12.6900 c6         1 KZF      -0.071900
     13 C4           3.7310   -39.0690    13.5100 c6         1 KZF      -0.083400
     14 H3'2         3.5470   -39.7410    15.5790 hc         1 KZF       0.059700
     15 H3'1         4.4150   -38.2200    15.4000 hc         1 KZF       0.059700
     16 H2'2         2.1670   -37.7920    16.3740 hc         1 KZF       0.061200
     17 H2'1         1.3830   -38.6370    15.0400 hc         1 KZF       0.061200
     18 HC'1         2.9880   -36.0020    14.8390 hx         1 KZF       0.100700
     19 H6'2         2.3770   -36.0310    12.4140 hc         1 KZF       0.061200
     20 H6'1         1.5050   -37.5500    12.6080 hc         1 KZF       0.061200
     21 HN           0.6970   -35.9780    15.7690 hn         1 KZF       0.488500
     22 H9           0.1000   -36.6460    14.4070 hn         1 KZF       0.488500
     23 HC11         0.7270   -34.6590    13.0790 hx         1 KZF       0.106700
     24 HC12         1.3980   -33.9430    14.5640 hx         1 KZF       0.106700
     25 HC21        -0.8550   -34.0880    15.6590 h1         1 KZF       0.087200
     26 HC22        -1.5300   -34.8150    14.1610 h1         1 KZF       0.087200
     27 H5'2         3.7470   -37.9830    11.6170 hc         1 KZF       0.059700
     28 H5'1         4.5410   -37.1270    12.9350 hc         1 KZF       0.059700
     29 H4'2         2.9450   -39.7550    13.1660 hc         1 KZF       0.056200
     30 H4'1         4.6880   -39.5790    13.3330 hc         1 KZF       0.056200
@<TRIPOS>BOND
     1     1     2 1   
     2     1    13 1   
     3     1    14 1   
     4     1    15 1   
     5     2     3 1   
     6     2    16 1   
     7     2    17 1   
     8     3     4 1   
     9     3     5 1   
    10     3    18 1   
    11     4    12 1   
    12     4    19 1   
    13     4    20 1   
    14     5     6 1   
    15     5    21 1   
    16     5    22 1   
    17     6     7 1   
    18     6    23 1   
    19     6    24 1   
    20     7     8 1   
    21     7    25 1   
    22     7    26 1   
    23     8     9 1   
    24     8    10 1   
    25     8    11 1   
    26    12    13 1   
    27    12    27 1   
    28    12    28 1   
    29    13    29 1   
    30    13    30 1   
@<TRIPOS>SUBSTRUCTURE
     1 KZF         1 TEMP              0 ****  ****    0 ROOT
