@<TRIPOS>MOLECULE
KZG
   36    37     1     0     0
SMALL
No Charge or Current Charge


@<TRIPOS>ATOM
      1 N           -2.1480     2.0520     2.1130 n8         1 KZG      -0.998200
      2 CB1         -2.3300     2.3670    -0.3920 c3         1 KZG       0.097600
      3 CA1         -2.7320     1.5000     0.8320 c3         1 KZG       0.158200
      4 C1          -2.3810     0.0230     0.5840 cc         1 KZG       0.482900
      5 N2          -1.1160    -0.3860     0.3970 nd         1 KZG      -0.678300
      6 N3          -3.3110    -1.0110     0.5750 n          1 KZG      -0.300300
      7 C2          -2.6730    -2.2070     0.3520 c          1 KZG       0.533200
      8 O2          -3.1630    -3.3280     0.2690 o          1 KZG      -0.518000
      9 CA2         -1.2700    -1.7610     0.2430 cd         1 KZG       0.034400
     10 CA3         -4.7880    -0.9010     0.7390 c3         1 KZG      -0.064000
     11 CB2         -0.1970    -2.6030     0.0240 ce         1 KZG      -0.109200
     12 CG2          1.2580    -2.3100    -0.1490 ca         1 KZG      -0.075800
     13 CD1          1.7140    -1.0950    -0.7050 ca         1 KZG      -0.011000
     14 CD2          2.2020    -3.2860     0.2270 ca         1 KZG      -0.051000
     15 CE1          3.0890    -0.8530    -0.8630 ca         1 KZG       0.148000
     16 CE2          3.5790    -3.0480     0.0700 ca         1 KZG      -0.221000
     17 CZ           4.0280    -1.8320    -0.4710 ca         1 KZG       0.158100
     18 OH           5.3710    -1.6190    -0.6160 oh         1 KZG      -0.522100
     19 C           -5.5430    -0.5260    -0.5550 c          1 KZG       0.710000
     20 O           -5.1690     0.4590    -1.1740 o          1 KZG      -0.714000
     21 I            3.7340     1.0420    -1.7230 i          1 KZG      -0.309000
     22 HN1         -2.4700     1.4850     2.9060 hn         1 KZG       0.401000
     23 HN2         -1.1330     1.8850     2.1030 hn         1 KZG       0.401000
     24 HG1         -2.3720     4.5090    -1.5230 hs         1 KZG       0.185800
     25 HB11        -2.7450     1.9080    -1.2990 h1         1 KZG       0.085200
     26 HB12        -1.2370     2.3630    -0.4940 h1         1 KZG       0.085200
     27 HA1         -3.8250     1.5760     0.9090 h1         1 KZG       0.112700
     28 HA31        -5.1820    -1.8600     1.1000 h1         1 KZG       0.050700
     29 HA32        -5.0220    -0.1480     1.5010 h1         1 KZG       0.050700
     30 HB2         -0.4550    -3.6620    -0.0170 ha         1 KZG       0.184000
     31 HD1          1.0110    -0.3360    -1.0310 ha         1 KZG       0.170000
     32 HD2          1.8680    -4.2310     0.6490 ha         1 KZG       0.113000
     33 HE2          4.2910    -3.8130     0.3720 ha         1 KZG       0.106000
     34 H1           5.8460    -2.4120    -0.2900 ho         1 KZG       0.463000
     35 OXT         -6.4550    -1.2520    -0.9240 o          1 KZG      -0.714000
     36 SG1         -2.9110     4.1390    -0.3360 sh         1 KZG      -0.444800
@<TRIPOS>BOND
     1     1     3 1   
     2     1    22 1   
     3     1    23 1   
     4     2     3 1   
     5     2    25 1   
     6     2    26 1   
     7     2    36 1   
     8     3     4 1   
     9     3    27 1   
    10     4     5 2   
    11     4     6 1   
    12     5     9 1   
    13     6     7 1   
    14     6    10 1   
    15     7     8 2   
    16     7     9 1   
    17     9    11 2   
    18    10    19 1   
    19    10    28 1   
    20    10    29 1   
    21    11    12 1   
    22    11    30 1   
    23    12    13 ar  
    24    12    14 ar  
    25    13    15 ar  
    26    13    31 1   
    27    14    16 ar  
    28    14    32 1   
    29    15    17 ar  
    30    15    21 1   
    31    16    17 ar  
    32    16    33 1   
    33    17    18 1   
    34    18    34 1   
    35    19    20 1   
    36    19    35 1   
    37    24    36 1   
@<TRIPOS>SUBSTRUCTURE
     1 KZG         1 TEMP              0 ****  ****    0 ROOT
