@<TRIPOS>MOLECULE
KZG
   36    37     1     0     0
SMALL
abcg2


@<TRIPOS>ATOM
      1 N           -2.3360     2.0710     1.8550 n8         1 KZG      -0.998200
      2 CB1         -2.2680     2.2400    -0.5760 c3         1 KZG       0.097600
      3 CA1         -2.8100     1.4720     0.6200 c3         1 KZG       0.158200
      4 C1          -2.4120     0.0240     0.5100 cc         1 KZG       0.482900
      5 N2          -1.1920    -0.3460     0.3040 nd         1 KZG      -0.678300
      6 N3          -3.2810    -1.0140     0.7530 n          1 KZG      -0.300300
      7 C2          -2.5750    -2.1910     0.6410 c          1 KZG       0.533200
      8 O2          -3.0270    -3.3140     0.7390 o          1 KZG      -0.518000
      9 CA2         -1.1910    -1.7300     0.3780 cd         1 KZG       0.034400
     10 CA3         -4.7190    -0.9250     0.7800 c3         1 KZG      -0.064000
     11 CB2         -0.1490    -2.5730     0.2490 ce         1 KZG      -0.109200
     12 CG2          1.2430    -2.2690    -0.0050 ca         1 KZG      -0.075800
     13 CD1          1.7350    -0.9670    -0.1720 ca         1 KZG      -0.011000
     14 CD2          2.1540    -3.3290    -0.0950 ca         1 KZG      -0.051000
     15 CE1          3.0750    -0.7510    -0.4180 ca         1 KZG       0.148000
     16 CE2          3.4940    -3.1100    -0.3400 ca         1 KZG      -0.221000
     17 CZ           3.9790    -1.8140    -0.5080 ca         1 KZG       0.158100
     18 OH           5.2640    -1.5450    -0.7490 oh         1 KZG      -0.522100
     19 C           -5.3210    -0.4960    -0.5790 c          1 KZG       0.710000
     20 O           -4.5210    -0.2010    -1.4830 o          1 KZG      -0.714000
     21 I            3.7800     1.2110    -0.6660 i          1 KZG      -0.309000
     22 HN1         -2.7930     1.6490     2.6540 hn         1 KZG       0.401000
     23 HN2         -1.3430     1.9050     1.9650 hn         1 KZG       0.401000
     24 HG1         -2.6670     4.3240    -1.6550 hs         1 KZG       0.185800
     25 HB11        -2.7380     1.8740    -1.4860 h1         1 KZG       0.085200
     26 HB12        -1.1900     2.1030    -0.6640 h1         1 KZG       0.085200
     27 HA1         -3.8970     1.5580     0.6100 h1         1 KZG       0.112700
     28 HA31        -5.1040    -1.9050     1.0640 h1         1 KZG       0.050700
     29 HA32        -5.0370    -0.2330     1.5630 h1         1 KZG       0.050700
     30 HB2         -0.3840    -3.6280     0.3530 ha         1 KZG       0.184000
     31 HD1          1.0500    -0.1330    -0.1070 ha         1 KZG       0.170000
     32 HD2          1.8040    -4.3460     0.0320 ha         1 KZG       0.113000
     33 HE2          4.1760    -3.9500    -0.4030 ha         1 KZG       0.106000
     34 H1           5.7820    -2.3570    -0.7940 ho         1 KZG       0.463000
     35 OXT         -6.5640    -0.4830    -0.6130 o          1 KZG      -0.714000
     36 SG1         -2.6570     4.0080    -0.3550 sh         1 KZG      -0.444800
@<TRIPOS>BOND
     1     1     3 1   
     2     1    22 1   
     3     1    23 1   
     4     2     3 1   
     5     2    25 1   
     6     2    26 1   
     7     2    36 1   
     8     3     4 1   
     9     3    27 1   
    10     4     5 2   
    11     4     6 1   
    12     5     9 1   
    13     6     7 1   
    14     6    10 1   
    15     7     8 2   
    16     7     9 1   
    17     9    11 2   
    18    10    19 1   
    19    10    28 1   
    20    10    29 1   
    21    11    12 1   
    22    11    30 1   
    23    12    13 ar  
    24    12    14 ar  
    25    13    15 ar  
    26    13    31 1   
    27    14    16 ar  
    28    14    32 1   
    29    15    17 ar  
    30    15    21 1   
    31    16    17 ar  
    32    16    33 1   
    33    17    18 1   
    34    18    34 1   
    35    19    20 1   
    36    19    35 1   
    37    24    36 1   
@<TRIPOS>SUBSTRUCTURE
     1 KZG         1 TEMP              0 ****  ****    0 ROOT
