@<TRIPOS>MOLECULE
KZH
   48    47     1     0     0
SMALL
No Charge or Current Charge


@<TRIPOS>ATOM
      1 O3           6.0580     2.6040     0.8920 o          1 KZH      -0.532100
      2 C13          5.8120     1.6540     0.1590 c          1 KZH       0.574300
      3 C14          6.9000     0.6340    -0.2140 c3         1 KZH      -0.144200
      4 C15          7.2260    -0.3060     0.9390 c2         1 KZH      -0.200200
      5 C16          6.8480    -1.5900     1.0720 c2         1 KZH      -0.210200
      6 C17          5.9770    -2.3930     0.1240 c3         1 KZH      -0.045200
      7 C18          6.8110    -3.2140    -0.8760 c3         1 KZH      -0.086100
      8 C12          4.4450     1.4330    -0.3990 ce         1 KZH      -0.339200
      9 C11          3.3680     2.2350    -0.1680 cf         1 KZH      -0.077000
     10 C10          2.0440     1.9970    -0.7220 cf         1 KZH      -0.236000
     11 C9           0.9740     2.7900    -0.4920 c2         1 KZH      -0.151200
     12 C8          -0.4150     2.5680    -1.0510 c3         1 KZH      -0.056200
     13 C7          -1.2090     1.5170    -0.2460 c3         1 KZH      -0.071400
     14 C6          -2.6320     1.2790    -0.7970 c3         1 KZH      -0.076400
     15 C5          -3.4240     0.2260     0.0100 c3         1 KZH      -0.075400
     16 C4          -4.8470    -0.0130    -0.5410 c3         1 KZH      -0.079400
     17 C3          -5.6400    -1.0660     0.2660 c3         1 KZH      -0.054400
     18 C2          -7.0670    -1.3070    -0.2840 c3         1 KZH      -0.204400
     19 C1          -7.7930    -2.3640     0.5670 c          1 KZH       0.717000
     20 O1          -8.4250    -1.9860     1.5420 o          1 KZH      -0.743000
     21 O2          -7.6680    -3.5400     0.2580 o          1 KZH      -0.743000
     22 H141         6.5730     0.0600    -1.0870 hc         1 KZH       0.064200
     23 H142         7.8080     1.1860    -0.4840 hc         1 KZH       0.064200
     24 H12          4.3230     0.5570    -1.0330 ha         1 KZH       0.179000
     25 H15          7.8490     0.1510     1.7130 ha         1 KZH       0.173000
     26 H16          7.1650    -2.1520     1.9530 ha         1 KZH       0.165000
     27 H171         5.3340    -3.0720     0.6970 hc         1 KZH       0.045700
     28 H172         5.2980    -1.7390    -0.4350 hc         1 KZH       0.045700
     29 H181         6.1550    -3.7870    -1.5420 hc         1 KZH       0.031033
     30 H182         7.4360    -2.5550    -1.4900 hc         1 KZH       0.031033
     31 H183         7.4650    -3.9180    -0.3470 hc         1 KZH       0.031033
     32 H11          3.4920     3.1150     0.4710 ha         1 KZH       0.187000
     33 H10          1.9240     1.1180    -1.3600 ha         1 KZH       0.177000
     34 H9           1.0750     3.6720     0.1450 ha         1 KZH       0.170000
     35 H81C        -0.9700     3.5150    -1.0500 hc         1 KZH       0.049200
     36 H82C        -0.3500     2.2480    -2.0980 hc         1 KZH       0.049200
     37 H71C        -0.6560     0.5690    -0.2510 hc         1 KZH       0.040700
     38 H72C        -1.2750     1.8420     0.8000 hc         1 KZH       0.040700
     39 H61C        -3.1840     2.2270    -0.7900 hc         1 KZH       0.033700
     40 H62C        -2.5640     0.9540    -1.8420 hc         1 KZH       0.033700
     41 H51C        -2.8720    -0.7220     0.0040 hc         1 KZH       0.035200
     42 H52C        -3.4920     0.5500     1.0560 hc         1 KZH       0.035200
     43 H41C        -5.3990     0.9360    -0.5350 hc         1 KZH       0.023700
     44 H42C        -4.7780    -0.3370    -1.5870 hc         1 KZH       0.023700
     45 H31C        -5.0870    -2.0130     0.2610 hc         1 KZH       0.038700
     46 H32C        -5.7070    -0.7420     1.3120 hc         1 KZH       0.038700
     47 H21C        -7.5820    -0.3400    -0.2170 hc         1 KZH       0.014700
     48 H22C        -6.9360    -1.6660    -1.3130 hc         1 KZH       0.014700
@<TRIPOS>BOND
     1     1     2 2   
     2     2     3 1   
     3     2     8 1   
     4     3     4 1   
     5     3    22 1   
     6     3    23 1   
     7     4     5 2   
     8     4    25 1   
     9     5     6 1   
    10     5    26 1   
    11     6     7 1   
    12     6    27 1   
    13     6    28 1   
    14     7    29 1   
    15     7    30 1   
    16     7    31 1   
    17     8     9 2   
    18     8    24 1   
    19     9    10 1   
    20     9    32 1   
    21    10    11 2   
    22    10    33 1   
    23    11    12 1   
    24    11    34 1   
    25    12    13 1   
    26    12    35 1   
    27    12    36 1   
    28    13    14 1   
    29    13    37 1   
    30    13    38 1   
    31    14    15 1   
    32    14    39 1   
    33    14    40 1   
    34    15    16 1   
    35    15    41 1   
    36    15    42 1   
    37    16    17 1   
    38    16    43 1   
    39    16    44 1   
    40    17    18 1   
    41    17    45 1   
    42    17    46 1   
    43    18    19 1   
    44    18    47 1   
    45    18    48 1   
    46    19    20 1   
    47    19    21 1   
@<TRIPOS>SUBSTRUCTURE
     1 KZH         1 TEMP              0 ****  ****    0 ROOT
