@<TRIPOS>MOLECULE
KZH
   48    47     1     0     0
SMALL
abcg2


@<TRIPOS>ATOM
      1 O3           5.5640     0.9500     1.4340 o          1 KZH      -0.532100
      2 C13          5.4490     0.7580     0.2390 c          1 KZH       0.574300
      3 C14          6.6160     0.3160    -0.6190 c3         1 KZH      -0.144200
      4 C15          7.9070     0.2180     0.1250 c2         1 KZH      -0.200200
      5 C16          8.5680    -0.8980     0.4260 c2         1 KZH      -0.210200
      6 C17          8.1880    -2.3070     0.0970 c3         1 KZH      -0.045200
      7 C18          9.2590    -3.0100    -0.7350 c3         1 KZH      -0.086100
      8 C12          4.1740     0.9270    -0.4750 ce         1 KZH      -0.339200
      9 C11          3.0420     1.2830     0.1540 cf         1 KZH      -0.077000
     10 C10          1.7650     1.4490    -0.4960 cf         1 KZH      -0.236000
     11 C9           0.6580     1.8030     0.1710 c2         1 KZH      -0.151200
     12 C8          -0.6900     1.9680    -0.4390 c3         1 KZH      -0.056200
     13 C7          -1.7270     1.0300     0.1850 c3         1 KZH      -0.071400
     14 C6          -3.0990     1.1670    -0.4620 c3         1 KZH      -0.076400
     15 C5          -4.1540     0.2680     0.1710 c3         1 KZH      -0.075400
     16 C4          -5.5080     0.3560    -0.5230 c3         1 KZH      -0.079400
     17 C3          -6.5780    -0.5180     0.1210 c3         1 KZH      -0.054400
     18 C2          -7.9110    -0.4390    -0.6060 c3         1 KZH      -0.204400
     19 C1          -9.0580    -1.2830    -0.0230 c          1 KZH       0.717000
     20 O1         -10.1530    -1.2010    -0.6210 o          1 KZH      -0.743000
     21 O2          -8.8210    -1.9780     0.9850 o          1 KZH      -0.743000
     22 H141         6.3340    -0.6290    -1.0930 hc         1 KZH       0.064200
     23 H142         6.7000     1.0320    -1.4450 hc         1 KZH       0.064200
     24 H12          4.1720     0.7470    -1.5460 ha         1 KZH       0.179000
     25 H15          8.3350     1.1630     0.4440 ha         1 KZH       0.173000
     26 H16          9.5040    -0.7910     0.9690 ha         1 KZH       0.165000
     27 H171         8.0490    -2.8600     1.0310 hc         1 KZH       0.045700
     28 H172         7.2310    -2.3480    -0.4250 hc         1 KZH       0.045700
     29 H181         8.9730    -4.0390    -0.9510 hc         1 KZH       0.031033
     30 H182         9.4170    -2.4990    -1.6860 hc         1 KZH       0.031033
     31 H183        10.2150    -3.0350    -0.2090 hc         1 KZH       0.031033
     32 H11          3.0720     1.4570     1.2260 ha         1 KZH       0.187000
     33 H10          1.7160     1.2750    -1.5670 ha         1 KZH       0.177000
     34 H9           0.7280     1.9720     1.2440 ha         1 KZH       0.170000
     35 H81C        -1.0220     3.0020    -0.2950 hc         1 KZH       0.049200
     36 H82C        -0.6360     1.8010    -1.5180 hc         1 KZH       0.049200
     37 H71C        -1.3810    -0.0040     0.0920 hc         1 KZH       0.040700
     38 H72C        -1.8030     1.2360     1.2580 hc         1 KZH       0.040700
     39 H61C        -3.4280     2.2100    -0.4030 hc         1 KZH       0.033700
     40 H62C        -3.0150     0.9330    -1.5290 hc         1 KZH       0.033700
     41 H51C        -3.8060    -0.7710     0.1520 hc         1 KZH       0.035200
     42 H52C        -4.2680     0.5310     1.2280 hc         1 KZH       0.035200
     43 H41C        -5.8440     1.4000    -0.5280 hc         1 KZH       0.023700
     44 H42C        -5.3890     0.0740    -1.5750 hc         1 KZH       0.023700
     45 H31C        -6.2310    -1.5550     0.1460 hc         1 KZH       0.038700
     46 H32C        -6.7070    -0.2190     1.1660 hc         1 KZH       0.038700
     47 H21C        -8.2450     0.6040    -0.6490 hc         1 KZH       0.014700
     48 H22C        -7.7730    -0.7320    -1.6540 hc         1 KZH       0.014700
@<TRIPOS>BOND
     1     1     2 2   
     2     2     3 1   
     3     2     8 1   
     4     3     4 1   
     5     3    22 1   
     6     3    23 1   
     7     4     5 2   
     8     4    25 1   
     9     5     6 1   
    10     5    26 1   
    11     6     7 1   
    12     6    27 1   
    13     6    28 1   
    14     7    29 1   
    15     7    30 1   
    16     7    31 1   
    17     8     9 2   
    18     8    24 1   
    19     9    10 1   
    20     9    32 1   
    21    10    11 2   
    22    10    33 1   
    23    11    12 1   
    24    11    34 1   
    25    12    13 1   
    26    12    35 1   
    27    12    36 1   
    28    13    14 1   
    29    13    37 1   
    30    13    38 1   
    31    14    15 1   
    32    14    39 1   
    33    14    40 1   
    34    15    16 1   
    35    15    41 1   
    36    15    42 1   
    37    16    17 1   
    38    16    43 1   
    39    16    44 1   
    40    17    18 1   
    41    17    45 1   
    42    17    46 1   
    43    18    19 1   
    44    18    47 1   
    45    18    48 1   
    46    19    20 1   
    47    19    21 1   
@<TRIPOS>SUBSTRUCTURE
     1 KZH         1 TEMP              0 ****  ****    0 ROOT
