@<TRIPOS>MOLECULE
KZI
   54    56     1     0     0
SMALL
bcc


@<TRIPOS>ATOM
      1 O1           1.8560    -3.9760    -0.4950 o          1 KZI      -0.661100
      2 O2           2.1150     3.3660     0.6010 os         1 KZI      -0.319400
      3 O3           5.8920     0.5090    -0.2690 os         1 KZI      -0.319400
      4 N4          -0.5690    -0.5240     0.0150 nb         1 KZI      -0.821000
      5 N5          -2.6740     0.3250     0.1640 nu         1 KZI      -0.849900
      6 N6          -0.0190    -5.2270    -0.5060 nt         1 KZI      -0.647000
      7 N8          -1.5490    -3.0700    -0.1970 nb         1 KZI      -0.588000
      8 C10          4.0800     2.0410     0.1720 ca         1 KZI      -0.334000
      9 C11         -4.8300    -0.0200    -1.0100 c6         1 KZI      -0.090400
     10 C12          3.7320    -0.3250    -0.2040 ca         1 KZI      -0.243500
     11 C13          0.2630    -1.5430    -0.1280 ca         1 KZI       0.691900
     12 C14          0.6240    -4.0590    -0.4260 c          1 KZI       0.608600
     13 C15         -2.3800    -2.0720    -0.0550 ca         1 KZI       0.155900
     14 C16          1.8330     1.1020     0.2260 ca         1 KZI      -0.243500
     15 C17         -0.2360    -2.8680    -0.2510 ca         1 KZI       0.080500
     16 C18          2.3520    -0.1620    -0.0440 ca         1 KZI       0.243600
     17 C19          2.7040     2.1850     0.3330 ca         1 KZI       0.196600
     18 C20         -4.1170     0.3040     0.3050 c6         1 KZI       0.249500
     19 C21          2.9250     4.5130     0.7670 c3         1 KZI       0.128200
     20 C22         -1.8820    -0.7470     0.0410 ca         1 KZI       0.651900
     21 C23          4.5820     0.7660    -0.0970 ca         1 KZI       0.196600
     22 C24         -4.5850     1.6680     0.8320 c6         1 KZI       0.151500
     23 C25         -4.6540     1.0750    -2.0540 c6         1 KZI      -0.074400
     24 C26         -5.1340     2.4180    -1.5190 c6         1 KZI      -0.074400
     25 C27          6.8160     1.5750    -0.1860 c3         1 KZI       0.128200
     26 C28         -4.4260     2.7680    -0.2160 c6         1 KZI      -0.077400
     27 N42         -3.8340     2.0170     2.0270 n8         1 KZI      -0.898800
     28 HN5         -2.2050     1.1850     0.4110 hn         1 KZI       0.467800
     29 HN6          0.4950    -6.0830    -0.6300 hn         1 KZI       0.326000
     30 HN6A        -1.0230    -5.2660    -0.4500 hn         1 KZI       0.326000
     31 HN9          2.1280    -2.1840    -0.3020 hn         1 KZI       0.494800
     32 H10          4.7410     2.8900     0.2500 ha         1 KZI       0.137000
     33 H11         -4.4880    -0.9780    -1.4080 hc         1 KZI       0.050200
     34 H11A        -5.8940    -0.1510    -0.7900 hc         1 KZI       0.050200
     35 H12          4.1490    -1.3030    -0.4180 ha         1 KZI       0.166500
     36 H15         -3.4370    -2.2990    -0.0060 h4         1 KZI       0.027100
     37 H16          0.7740     1.2560     0.3510 ha         1 KZI       0.166500
     38 H20         -4.3920    -0.4530     1.0520 h1         1 KZI       0.045700
     39 H21          3.6450     4.3910     1.5810 h1         1 KZI       0.038533
     40 H21A         3.4680     4.7670    -0.1470 h1         1 KZI       0.038533
     41 H21B         2.2540     5.3320     1.0130 h1         1 KZI       0.038533
     42 H24         -5.6620     1.5520     1.0240 h1         1 KZI       0.026700
     43 H25         -3.6010     1.1470    -2.3410 hc         1 KZI       0.050200
     44 H25A        -5.2020     0.8070    -2.9600 hc         1 KZI       0.050200
     45 H26         -4.9700     3.2070    -2.2560 hc         1 KZI       0.042200
     46 H26A        -6.2150     2.3740    -1.3480 hc         1 KZI       0.042200
     47 H27          6.6270     2.3400    -0.9430 h1         1 KZI       0.038533
     48 H27A         6.8120     2.0460     0.8000 h1         1 KZI       0.038533
     49 H27B         7.7990     1.1440    -0.3610 h1         1 KZI       0.038533
     50 H28         -4.8210     3.7030     0.1910 hc         1 KZI       0.050700
     51 H28A        -3.3620     2.9470    -0.4100 hc         1 KZI       0.050700
     52 HN42        -4.1510     2.9120     2.3780 hn         1 KZI       0.348300
     53 HN4A        -4.0230     1.3460     2.7630 hn         1 KZI       0.348300
     54 N9           1.6020    -1.3240    -0.1610 nu         1 KZI      -0.737300
@<TRIPOS>BOND
     1     1    12 2   
     2     2    17 1   
     3     2    19 1   
     4     3    21 1   
     5     3    25 1   
     6     4    11 ar  
     7     4    20 ar  
     8     5    18 1   
     9     5    20 1   
    10     5    28 1   
    11     6    12 1   
    12     6    29 1   
    13     6    30 1   
    14     7    13 ar  
    15     7    15 ar  
    16     8    17 ar  
    17     8    21 ar  
    18     8    32 1   
    19     9    18 1   
    20     9    23 1   
    21     9    33 1   
    22     9    34 1   
    23    10    16 ar  
    24    10    21 ar  
    25    10    35 1   
    26    11    15 ar  
    27    11    54 1   
    28    12    15 1   
    29    13    20 ar  
    30    13    36 1   
    31    14    16 ar  
    32    14    17 ar  
    33    14    37 1   
    34    16    54 1   
    35    18    22 1   
    36    18    38 1   
    37    19    39 1   
    38    19    40 1   
    39    19    41 1   
    40    22    26 1   
    41    22    27 1   
    42    22    42 1   
    43    23    24 1   
    44    23    43 1   
    45    23    44 1   
    46    24    26 1   
    47    24    45 1   
    48    24    46 1   
    49    25    47 1   
    50    25    48 1   
    51    25    49 1   
    52    26    50 1   
    53    26    51 1   
    54    27    52 1   
    55    27    53 1   
    56    31    54 1   
@<TRIPOS>SUBSTRUCTURE
     1 KZI         1 TEMP              0 ****  ****    0 ROOT
