@<TRIPOS>MOLECULE
KZI
   54    56     1     0     0
SMALL
No Charge or Current Charge


@<TRIPOS>ATOM
      1 O1           1.9030    -4.1280    -0.0280 o          1 KZI      -0.661100
      2 O2           2.1490     3.1180     1.5540 os         1 KZI      -0.342600
      3 O3           5.6690     0.7980    -0.9150 os         1 KZI      -0.342600
      4 N4          -0.5960    -0.6580    -0.1550 nb         1 KZI      -0.821000
      5 N5          -2.6070     0.2360    -0.3260 nu         1 KZI      -0.905100
      6 N6           0.1600    -5.4960     0.0070 nt         1 KZI      -0.580000
      7 N8          -1.6370    -3.3560    -0.1670 nb         1 KZI      -0.588000
      8 C10          3.9480     2.0240     0.3130 ca         1 KZI      -0.316000
      9 C11         -4.9800     0.0530    -1.1010 c6         1 KZI      -0.090400
     10 C12          3.5960    -0.2600    -0.4330 ca         1 KZI      -0.225500
     11 C13          0.2070    -1.7340    -0.0630 ca         1 KZI       0.691900
     12 C14          0.6860    -4.2510    -0.0290 c          1 KZI       0.541600
     13 C15         -2.4360    -2.2570    -0.2440 ca         1 KZI       0.155900
     14 C16          1.8530     0.8890     0.7830 ca         1 KZI      -0.225500
     15 C17         -0.2890    -3.0840    -0.0830 ca         1 KZI       0.080500
     16 C18          2.3090    -0.2540     0.1120 ca         1 KZI       0.382000
     17 C19          2.6600     2.0270     0.8820 ca         1 KZI       0.196600
     18 C20         -4.0150     0.3990     0.0700 c6         1 KZI       0.249500
     19 C21          2.8920     4.3390     1.7170 c3         1 KZI       0.151400
     20 C22         -1.8990    -0.9320    -0.2410 ca         1 KZI       0.651900
     21 C23          4.4160     0.8700    -0.3450 ca         1 KZI       0.196600
     22 C24         -4.2510     1.8670     0.5980 c6         1 KZI       0.151500
     23 C25         -4.9600     1.1180    -2.2280 c6         1 KZI      -0.074400
     24 C26         -5.2610     2.5270    -1.6680 c6         1 KZI      -0.074400
     25 C27          6.5950     1.8980    -0.8840 c3         1 KZI       0.151400
     26 C28         -4.2550     2.9090    -0.5550 c6         1 KZI      -0.077400
     27 N42         -3.2450     2.2740     1.6190 n8         1 KZI      -1.009200
     28 HN5         -2.0030     1.0100    -0.0680 hn         1 KZI       0.523000
     29 HN6          0.7710    -6.2980     0.0380 hn         1 KZI       0.326000
     30 HN6A        -0.8440    -5.6050    -0.0030 hn         1 KZI       0.326000
     31 HN9          2.1130    -2.2720    -0.0790 hn         1 KZI       0.550000
     32 H10          4.5790     2.9020     0.3860 ha         1 KZI       0.119000
     33 H11         -4.7440    -0.9330    -1.5200 hc         1 KZI       0.050200
     34 H11A        -6.0010    -0.0250    -0.7030 hc         1 KZI       0.050200
     35 H12          3.9670    -1.1440    -0.9430 ha         1 KZI       0.148500
     36 H15         -3.5060    -2.4400    -0.3070 h4         1 KZI       0.027100
     37 H16          0.8740     0.9000     1.2470 ha         1 KZI       0.148500
     38 H20         -4.2290    -0.2850     0.9050 h1         1 KZI       0.045700
     39 H21          3.8220     4.1590     2.2710 h1         1 KZI       0.038533
     40 H21A         3.1390     4.7780     0.7420 h1         1 KZI       0.038533
     41 H21B         2.2990     5.0720     2.2790 h1         1 KZI       0.038533
     42 H24         -5.2360     1.8970     1.0880 h1         1 KZI       0.026700
     43 H25         -3.9800     1.1160    -2.7260 hc         1 KZI       0.050200
     44 H25A        -5.6990     0.8570    -2.9980 hc         1 KZI       0.050200
     45 H26         -5.2160     3.2670    -2.4790 hc         1 KZI       0.042200
     46 H26A        -6.2860     2.5600    -1.2720 hc         1 KZI       0.042200
     47 H27          6.1740     2.7760    -1.3900 h1         1 KZI       0.038533
     48 H27A         6.8410     2.1710     0.1500 h1         1 KZI       0.038533
     49 H27B         7.5260     1.6260    -1.3950 h1         1 KZI       0.038533
     50 H28         -4.5090     3.9020    -0.1610 hc         1 KZI       0.050700
     51 H28A        -3.2490     2.9950    -0.9890 hc         1 KZI       0.050700
     52 HN42        -3.5110     3.1900     1.9980 hn         1 KZI       0.403500
     53 HN4A        -3.3240     1.6500     2.4310 hn         1 KZI       0.403500
     54 N9           1.5540    -1.4180     0.0110 nu         1 KZI      -0.930900
@<TRIPOS>BOND
     1     1    12 2   
     2     2    17 1   
     3     2    19 1   
     4     3    21 1   
     5     3    25 1   
     6     4    11 ar  
     7     4    20 ar  
     8     5    18 1   
     9     5    20 1   
    10     5    28 1   
    11     6    12 1   
    12     6    29 1   
    13     6    30 1   
    14     7    13 ar  
    15     7    15 ar  
    16     8    17 ar  
    17     8    21 ar  
    18     8    32 1   
    19     9    18 1   
    20     9    23 1   
    21     9    33 1   
    22     9    34 1   
    23    10    16 ar  
    24    10    21 ar  
    25    10    35 1   
    26    11    15 ar  
    27    11    54 1   
    28    12    15 1   
    29    13    20 ar  
    30    13    36 1   
    31    14    16 ar  
    32    14    17 ar  
    33    14    37 1   
    34    16    54 1   
    35    18    22 1   
    36    18    38 1   
    37    19    39 1   
    38    19    40 1   
    39    19    41 1   
    40    22    26 1   
    41    22    27 1   
    42    22    42 1   
    43    23    24 1   
    44    23    43 1   
    45    23    44 1   
    46    24    26 1   
    47    24    45 1   
    48    24    46 1   
    49    25    47 1   
    50    25    48 1   
    51    25    49 1   
    52    26    50 1   
    53    26    51 1   
    54    27    52 1   
    55    27    53 1   
    56    31    54 1   
@<TRIPOS>SUBSTRUCTURE
     1 KZI         1 TEMP              0 ****  ****    0 ROOT
