@<TRIPOS>MOLECULE
KZJ
   53    57     1     0     0
SMALL
No Charge or Current Charge


@<TRIPOS>ATOM
      1 N14          2.8770     0.0020     0.5110 n          1 KZJ      -0.189200
      2 C13          1.8810    -0.9320     0.1500 c          1 KZJ       0.541200
      3 C18          4.2740    -0.1230     0.2060 ca         1 KZJ       0.043600
      4 C17          0.2620     0.5300     1.3970 cc         1 KZJ      -0.150000
      5 C16          1.3510     1.4020     1.7380 cc         1 KZJ      -0.247000
      6 C15          2.6260     1.1290     1.2960 cd         1 KZJ      -0.067400
      7 C20         -4.3240    -5.0460    -0.1890 c3         1 KZJ       0.209100
      8 C24         -2.2040     4.0030    -0.0900 cx         1 KZJ       0.058700
      9 C11         -4.1530     2.4580    -0.2890 c          1 KZJ       0.652300
     10 C12          0.4840    -0.5940     0.6220 cd         1 KZJ       0.039800
     11 C27          4.9320     0.8630    -0.5560 ca         1 KZJ      -0.098500
     12 C1          -2.5990    -2.5660     0.0140 cc         1 KZJ      -0.359000
     13 C2          -1.8940    -1.3320     0.1110 cc         1 KZJ       0.652900
     14 N3          -2.3720    -0.1000     0.0170 nd         1 KZJ      -0.641800
     15 N4          -3.7330    -0.1090    -0.1800 na         1 KZJ       0.308900
     16 C5          -4.5140    -1.2280    -0.2680 cd         1 KZJ      -0.176000
     17 C6          -3.9480    -2.5280    -0.1740 cd         1 KZJ       0.453000
     18 N7          -0.5460    -1.4750     0.2810 nu         1 KZJ      -0.787900
     19 C8          -4.4990     1.0210    -0.3050 cd         1 KZJ      -0.214300
     20 C9          -5.7720     0.5050    -0.4660 cc         1 KZJ       0.004600
     21 N10         -5.7810    -0.8760    -0.4450 nc         1 KZJ      -0.292600
     22 N19         -4.7420    -3.6350    -0.2710 nu         1 KZJ      -0.936200
     23 O21          2.1370    -1.9390    -0.5080 o          1 KZJ      -0.564000
     24 N22         -2.8120     2.7040    -0.1340 ns         1 KZJ      -0.483900
     25 O23         -4.9800     3.3530    -0.4060 o          1 KZJ      -0.601100
     26 C25         -0.6980     4.0630    -0.1520 cx         1 KZJ      -0.138900
     27 C26         -1.5200     4.4990    -1.3400 cx         1 KZJ      -0.138900
     28 C28          6.3000     0.7330    -0.8570 ca         1 KZJ      -0.066000
     29 C29          7.0210    -0.3880    -0.4010 ca         1 KZJ      -0.007000
     30 C30          6.3630    -1.3770     0.3560 ca         1 KZJ      -0.066000
     31 C31          4.9960    -1.2450     0.6550 ca         1 KZJ      -0.098500
     32 C32          8.4190    -0.5220    -0.7080 cg         1 KZJ       0.318000
     33 N33          9.5560    -0.6240    -0.9520 n1         1 KZJ      -0.439000
     34 H39         -0.7270     0.7650     1.7800 ha         1 KZJ       0.214000
     35 H38          1.1550     2.2760     2.3560 ha         1 KZJ       0.206000
     36 H37          3.4970     1.7380     1.5310 h4         1 KZJ       0.211000
     37 H41         -3.6050    -5.2830    -0.9850 h1         1 KZJ       0.046367
     38 H42         -3.8520    -5.2540     0.7800 h1         1 KZJ       0.046367
     39 H43         -5.1920    -5.7120    -0.3000 h1         1 KZJ       0.046367
     40 H45         -2.7240     4.7280     0.5390 h1         1 KZJ       0.086700
     41 H50          4.3820     1.7280    -0.9200 ha         1 KZJ       0.134000
     42 H34         -2.0690    -3.5030     0.1030 ha         1 KZJ       0.136000
     43 H35         -0.2230    -2.3800    -0.0580 hn         1 KZJ       0.527000
     44 H36         -6.7010     1.0540    -0.6020 h4         1 KZJ       0.246000
     45 H40         -5.7330    -3.4230    -0.4090 hn         1 KZJ       0.527000
     46 H44         -2.2360     1.8700    -0.0560 hn         1 KZJ       0.349500
     47 H47         -0.2010     4.8340     0.4320 hc         1 KZJ       0.076200
     48 H46         -0.1480     3.1290    -0.2340 hc         1 KZJ       0.076200
     49 H48         -1.5280     3.8550    -2.2160 hc         1 KZJ       0.076200
     50 H49         -1.5770     5.5630    -1.5560 hc         1 KZJ       0.076200
     51 H51          6.7960     1.5020    -1.4460 ha         1 KZJ       0.133000
     52 H52          6.9100    -2.2490     0.7120 ha         1 KZJ       0.133000
     53 H53          4.4960    -2.0140     1.2400 ha         1 KZJ       0.134000
@<TRIPOS>BOND
     1     1     2 1   
     2     1     3 1   
     3     1     6 1   
     4     2    10 1   
     5     2    23 2   
     6     3    11 ar  
     7     3    31 ar  
     8     4     5 1   
     9     4    10 2   
    10     4    34 1   
    11     5     6 2   
    12     5    35 1   
    13     6    36 1   
    14     7    22 1   
    15     7    37 1   
    16     7    38 1   
    17     7    39 1   
    18     8    24 1   
    19     8    26 1   
    20     8    27 1   
    21     8    40 1   
    22     9    19 1   
    23     9    24 1   
    24     9    25 2   
    25    10    18 1   
    26    11    28 ar  
    27    11    41 1   
    28    12    13 1   
    29    12    17 2   
    30    12    42 1   
    31    13    14 2   
    32    13    18 1   
    33    14    15 1   
    34    15    16 1   
    35    15    19 1   
    36    16    17 1   
    37    16    21 2   
    38    17    22 1   
    39    18    43 1   
    40    19    20 2   
    41    20    21 1   
    42    20    44 1   
    43    22    45 1   
    44    24    46 1   
    45    26    27 1   
    46    26    47 1   
    47    26    48 1   
    48    27    49 1   
    49    27    50 1   
    50    28    29 ar  
    51    28    51 1   
    52    29    30 ar  
    53    29    32 1   
    54    30    31 ar  
    55    30    52 1   
    56    31    53 1   
    57    32    33 3   
@<TRIPOS>SUBSTRUCTURE
     1 KZJ         1 TEMP              0 ****  ****    0 ROOT
