@<TRIPOS>MOLECULE
KZJ
   53    57     1     0     0
SMALL
bcc


@<TRIPOS>ATOM
      1 N14          2.8840     0.1450     0.5750 n          1 KZJ      -0.256200
      2 C13          1.9160    -0.8050     0.3300 c          1 KZJ       0.683700
      3 C18          4.2380    -0.1950     0.2840 ca         1 KZJ       0.043600
      4 C17          0.2900     0.8400     1.1320 cc         1 KZJ      -0.100000
      5 C16          1.3440     1.7630     1.3350 cc         1 KZJ      -0.197000
      6 C15          2.6120     1.4030     1.0490 cd         1 KZJ      -0.017400
      7 C20         -3.9890    -4.9840    -0.4330 c3         1 KZJ       0.209100
      8 C24         -2.2860     3.9650     0.1440 cx         1 KZJ       0.058700
      9 C11         -4.0650     2.3390    -0.1140 c          1 KZJ       0.719300
     10 C12          0.5470    -0.3990     0.6220 cd         1 KZJ       0.039800
     11 C27          4.8910     0.4580    -0.7500 ca         1 KZJ      -0.116500
     12 C1          -2.3910    -2.5630    -0.0400 cc         1 KZJ      -0.442300
     13 C2          -1.7090    -1.3330     0.1400 cc         1 KZJ       0.718200
     14 N3          -2.2760    -0.1510     0.0970 nd         1 KZJ      -0.641800
     15 N4          -3.5970    -0.1760    -0.1390 na         1 KZJ       0.258200
     16 C5          -4.3700    -1.2740    -0.3230 cd         1 KZJ      -0.125300
     17 C6          -3.7490    -2.5600    -0.2780 cd         1 KZJ       0.314600
     18 N7          -0.3630    -1.4050     0.3640 nu         1 KZJ      -0.732700
     19 C8          -4.4240     0.9170    -0.2250 cd         1 KZJ      -0.214300
     20 C9          -5.6770     0.3850    -0.4600 cc         1 KZJ       0.054600
     21 N10         -5.6390    -0.9570    -0.5210 nc         1 KZJ      -0.292600
     22 N19         -4.5070    -3.6410    -0.4620 nu         1 KZJ      -0.742600
     23 O21          2.2050    -1.9170    -0.1010 o          1 KZJ      -0.639500
     24 N22         -2.7570     2.6310    -0.0260 ns         1 KZJ      -0.550900
     25 O23         -4.9490     3.1870    -0.1110 o          1 KZJ      -0.601100
     26 C25         -0.9530     4.3060    -0.4350 cx         1 KZJ      -0.138900
     27 C26         -2.2000     4.8810    -1.0360 cx         1 KZJ      -0.138900
     28 C28          6.2150     0.1600    -1.0210 ca         1 KZJ      -0.084000
     29 C29          6.8700    -0.8020    -0.2570 ca         1 KZJ      -0.007000
     30 C30          6.2080    -1.4590     0.7810 ca         1 KZJ      -0.084000
     31 C31          4.8890    -1.1520     1.0520 ca         1 KZJ      -0.116500
     32 C32          8.2350    -1.1190    -0.5360 cg         1 KZJ       0.228800
     33 N33          9.3330    -1.3820    -0.7630 n1         1 KZJ      -0.349800
     34 H39         -0.7140     1.1280     1.4020 ha         1 KZJ       0.164000
     35 H38          1.1390     2.7490     1.7240 ha         1 KZJ       0.156000
     36 H37          3.4630     2.0530     1.1850 h4         1 KZJ       0.161000
     37 H41         -3.2350    -5.1400    -1.2070 h1         1 KZJ       0.046367
     38 H42         -3.5420    -5.2240     0.5350 h1         1 KZJ       0.046367
     39 H43         -4.8080    -5.6740    -0.6110 h1         1 KZJ       0.046367
     40 H45         -2.5370     4.4190     1.0980 h1         1 KZJ       0.086700
     41 H50          4.3690     1.1970    -1.3430 ha         1 KZJ       0.152000
     42 H34         -1.8330    -3.4860     0.0270 ha         1 KZJ       0.154000
     43 H35          0.0590    -2.3050     0.1890 hn         1 KZJ       0.471800
     44 H36         -6.5940     0.9380    -0.5900 h4         1 KZJ       0.196000
     45 H40         -5.4950    -3.5040    -0.6010 hn         1 KZJ       0.471800
     46 H44         -2.0970     1.8650    -0.0220 hn         1 KZJ       0.349500
     47 H47         -0.3040     4.9500     0.1440 hc         1 KZJ       0.076200
     48 H46         -0.4330     3.5380    -0.9940 hc         1 KZJ       0.076200
     49 H48         -2.5190     4.4900    -1.9940 hc         1 KZJ       0.076200
     50 H49         -2.4190     5.9280    -0.8780 hc         1 KZJ       0.076200
     51 H51          6.7320     0.6660    -1.8240 ha         1 KZJ       0.151000
     52 H52          6.7260    -2.2000     1.3740 ha         1 KZJ       0.151000
     53 H53          4.3740    -1.6450     1.8640 ha         1 KZJ       0.152000
@<TRIPOS>BOND
     1     1     2 1   
     2     1     3 1   
     3     1     6 1   
     4     2    10 1   
     5     2    23 2   
     6     3    11 ar  
     7     3    31 ar  
     8     4     5 1   
     9     4    10 2   
    10     4    34 1   
    11     5     6 2   
    12     5    35 1   
    13     6    36 1   
    14     7    22 1   
    15     7    37 1   
    16     7    38 1   
    17     7    39 1   
    18     8    24 1   
    19     8    26 1   
    20     8    27 1   
    21     8    40 1   
    22     9    19 1   
    23     9    24 1   
    24     9    25 2   
    25    10    18 1   
    26    11    28 ar  
    27    11    41 1   
    28    12    13 1   
    29    12    17 2   
    30    12    42 1   
    31    13    14 2   
    32    13    18 1   
    33    14    15 1   
    34    15    16 1   
    35    15    19 1   
    36    16    17 1   
    37    16    21 2   
    38    17    22 1   
    39    18    43 1   
    40    19    20 2   
    41    20    21 1   
    42    20    44 1   
    43    22    45 1   
    44    24    46 1   
    45    26    27 1   
    46    26    47 1   
    47    26    48 1   
    48    27    49 1   
    49    27    50 1   
    50    28    29 ar  
    51    28    51 1   
    52    29    30 ar  
    53    29    32 1   
    54    30    31 ar  
    55    30    52 1   
    56    31    53 1   
    57    32    33 3   
@<TRIPOS>SUBSTRUCTURE
     1 KZJ         1 TEMP              0 ****  ****    0 ROOT
