@<TRIPOS>MOLECULE
KZK
   58    61     1     0     0
SMALL
No Charge or Current Charge


@<TRIPOS>ATOM
      1 O3         167.8020   -13.1080    34.0380 o          1 KZK      -0.549000
      2 C4         172.4890    -7.3990    36.0620 c3         1 KZK       0.153900
      3 C5         169.3030    -9.0450    34.9910 ca         1 KZK      -0.065000
      4 C6         167.3350    -7.6490    34.1160 c          1 KZK       0.603100
      5 N1         163.6330    -6.1940    36.4140 na         1 KZK      -0.230700
      6 C7         166.7610    -6.2410    34.3230 c3         1 KZK      -0.071200
      7 C8         165.6790    -6.2170    35.3760 cc         1 KZK      -0.148400
      8 N2         167.6000   -13.0220    36.5700 n3         1 KZK      -0.783500
      9 C9         164.3070    -6.1010    35.1720 cd         1 KZK      -0.129100
     10 C10        164.6160    -6.3720    37.3690 ca         1 KZK      -0.042200
     11 C11        165.8550    -6.3820    36.7930 ca         1 KZK      -0.090800
     12 C12        167.0230    -6.5380    37.5570 ca         1 KZK      -0.065000
     13 C13        166.8850    -6.6970    38.9520 ca         1 KZK      -0.141000
     14 C14        165.6020    -6.6950    39.5480 ca         1 KZK      -0.094000
     15 C15        164.4490    -6.5290    38.7520 ca         1 KZK      -0.125000
     16 S          168.6580   -13.0800    35.2300 sy         1 KZK       1.213600
     17 O          169.6170   -14.1570    35.5000 o          1 KZK      -0.549000
     18 C22        168.0970   -12.4070    37.8300 c3         1 KZK       0.223800
     19 C21        167.7640   -10.9140    38.0980 c3         1 KZK      -0.089900
     20 C20        166.3530   -10.4280    37.6910 c3         1 KZK      -0.072400
     21 C19        165.1820   -11.3600    38.0950 c3         1 KZK      -0.072400
     22 C18        165.2300   -12.8050    37.5190 c3         1 KZK      -0.089900
     23 C17        166.1430   -12.9870    36.2810 c3         1 KZK       0.223800
     24 C          169.4580   -11.4690    35.2710 ca         1 KZK      -0.312500
     25 C16        168.7280   -10.3290    34.8850 ca         1 KZK      -0.022000
     26 C3         170.6270    -8.9140    35.4620 ca         1 KZK       0.132100
     27 O1         171.1550    -7.6400    35.5780 os         1 KZK      -0.368100
     28 C2         171.3670   -10.0640    35.8140 ca         1 KZK      -0.193000
     29 C1         170.7820   -11.3380    35.7260 ca         1 KZK      -0.003000
     30 O2         166.7310    -8.5070    33.4790 o          1 KZK      -0.574100
     31 H1         172.7000    -6.3220    36.0740 h1         1 KZK       0.047367
     32 H2         172.6070    -7.7780    37.0850 h1         1 KZK       0.047367
     33 H3         173.2330    -7.8840    35.4180 h1         1 KZK       0.047367
     34 H5         167.5590    -5.5570    34.6340 hc         1 KZK       0.065200
     35 H6         166.3400    -5.8960    33.3710 hc         1 KZK       0.065200
     36 H7         163.7650    -5.9790    34.2370 h4         1 KZK       0.217000
     37 H8         168.0060    -6.5350    37.0960 ha         1 KZK       0.112000
     38 H9         167.7700    -6.8230    39.5710 ha         1 KZK       0.110000
     39 H10        165.5040    -6.8200    40.6240 ha         1 KZK       0.111000
     40 H11        163.4580    -6.5220    39.2010 ha         1 KZK       0.114000
     41 H12        167.6850   -12.9750    38.6740 h1         1 KZK       0.061450
     42 H13        169.1850   -12.5370    37.9150 h1         1 KZK       0.061450
     43 H14        167.8960   -10.7340    39.1720 hc         1 KZK       0.046450
     44 H15        168.5080   -10.2800    37.6050 hc         1 KZK       0.046450
     45 H16        166.3250   -10.2520    36.6100 hc         1 KZK       0.041450
     46 H17        166.1840    -9.4450    38.1460 hc         1 KZK       0.041450
     47 H18        164.2510   -10.8860    37.7630 hc         1 KZK       0.041450
     48 H19        165.1220   -11.4130    39.1900 hc         1 KZK       0.041450
     49 H20        164.2100   -13.0940    37.2400 hc         1 KZK       0.046450
     50 H21        165.5310   -13.5120    38.3010 hc         1 KZK       0.046450
     51 H22        165.9060   -12.1900    35.5620 h1         1 KZK       0.061450
     52 H23        165.8590   -13.9300    35.7950 h1         1 KZK       0.061450
     53 H24        167.6980   -10.4520    34.5610 ha         1 KZK       0.170000
     54 H25        172.3870    -9.9910    36.1780 ha         1 KZK       0.121000
     55 H26        171.3570   -12.2130    36.0260 ha         1 KZK       0.137000
     56 N          168.5620    -7.8590    34.7290 ns         1 KZK      -0.146000
     57 H4         162.6300    -6.1490    36.5700 hn         1 KZK       0.353000
     58 H27        168.9720    -7.0300    35.1380 hn         1 KZK       0.165000
@<TRIPOS>BOND
     1     1    16 2   
     2     2    27 1   
     3     2    31 1   
     4     2    32 1   
     5     2    33 1   
     6     3    25 ar  
     7     3    26 ar  
     8     3    56 1   
     9     4     6 1   
    10     4    30 2   
    11     4    56 1   
    12     5     9 1   
    13     5    10 1   
    14     5    57 1   
    15     6     7 1   
    16     6    34 1   
    17     6    35 1   
    18     7     9 2   
    19     7    11 1   
    20     8    16 1   
    21     8    18 1   
    22     8    23 1   
    23     9    36 1   
    24    10    11 ar  
    25    10    15 ar  
    26    11    12 ar  
    27    12    13 ar  
    28    12    37 1   
    29    13    14 ar  
    30    13    38 1   
    31    14    15 ar  
    32    14    39 1   
    33    15    40 1   
    34    16    17 2   
    35    16    24 1   
    36    18    19 1   
    37    18    41 1   
    38    18    42 1   
    39    19    20 1   
    40    19    43 1   
    41    19    44 1   
    42    20    21 1   
    43    20    45 1   
    44    20    46 1   
    45    21    22 1   
    46    21    47 1   
    47    21    48 1   
    48    22    23 1   
    49    22    49 1   
    50    22    50 1   
    51    23    51 1   
    52    23    52 1   
    53    24    25 ar  
    54    24    29 ar  
    55    25    53 1   
    56    26    27 1   
    57    26    28 ar  
    58    28    29 ar  
    59    28    54 1   
    60    29    55 1   
    61    56    58 1   
@<TRIPOS>SUBSTRUCTURE
     1 KZK         1 TEMP              0 ****  ****    0 ROOT
