@<TRIPOS>MOLECULE
KZK
   58    61     1     0     0
SMALL
abcg2


@<TRIPOS>ATOM
      1 O3         167.4680   -12.8620    34.0260 o          1 KZK      -0.549000
      2 C4         172.2160    -7.3870    36.1350 c3         1 KZK       0.153900
      3 C5         169.1310    -8.9200    34.8970 ca         1 KZK      -0.065000
      4 C6         167.2540    -7.5100    34.0720 c          1 KZK       0.603100
      5 N1         163.4740    -5.7710    35.9000 na         1 KZK      -0.230700
      6 C7         166.7410    -6.0800    34.1870 c3         1 KZK      -0.071200
      7 C8         165.5670    -6.0310    35.1170 cc         1 KZK      -0.148400
      8 N2         167.5050   -12.9410    36.4900 n3         1 KZK      -0.783500
      9 C9         164.2910    -5.6430    34.7990 cd         1 KZK      -0.129100
     10 C10        164.2060    -6.2580    36.9550 ca         1 KZK      -0.042200
     11 C11        165.5420    -6.4350    36.4990 ca         1 KZK      -0.090800
     12 C12        166.5000    -6.9380    37.3920 ca         1 KZK      -0.065000
     13 C13        166.1160    -7.2480    38.6860 ca         1 KZK      -0.141000
     14 C14        164.7890    -7.0650    39.1150 ca         1 KZK      -0.094000
     15 C15        163.8190    -6.5680    38.2590 ca         1 KZK      -0.125000
     16 S          168.4000   -12.8650    35.1310 sy         1 KZK       1.213600
     17 O          169.4080   -13.8990    35.2040 o          1 KZK      -0.549000
     18 C22        168.1620   -13.2460    37.7720 c3         1 KZK       0.223800
     19 C21        168.6300   -12.0260    38.5790 c3         1 KZK      -0.089900
     20 C20        167.7080   -10.8120    38.4770 c3         1 KZK      -0.072400
     21 C19        166.2290   -11.0800    38.7640 c3         1 KZK      -0.072400
     22 C18        165.5610   -12.1330    37.8540 c3         1 KZK      -0.089900
     23 C17        166.1760   -12.2690    36.4670 c3         1 KZK       0.223800
     24 C          169.2410   -11.3100    35.1390 ca         1 KZK      -0.312500
     25 C16        168.5440   -10.1670    34.7430 ca         1 KZK      -0.022000
     26 C3         170.4370    -8.8290    35.4330 ca         1 KZK       0.132100
     27 O1         170.9190    -7.5730    35.5600 os         1 KZK      -0.368100
     28 C2         171.1270    -9.9810    35.7920 ca         1 KZK      -0.193000
     29 C1         170.5260   -11.2260    35.6530 ca         1 KZK      -0.003000
     30 O2         166.5790    -8.4010    33.5710 o          1 KZK      -0.574100
     31 H1         172.3780    -6.3130    36.1530 h1         1 KZK       0.047367
     32 H2         172.2470    -7.7860    37.1510 h1         1 KZK       0.047367
     33 H3         172.9810    -7.8680    35.5230 h1         1 KZK       0.047367
     34 H5         167.5390    -5.4150    34.5250 hc         1 KZK       0.065200
     35 H6         166.4350    -5.7560    33.1910 hc         1 KZK       0.065200
     36 H7         163.8990    -5.2830    33.8620 h4         1 KZK       0.217000
     37 H8         167.5240    -7.0900    37.0780 ha         1 KZK       0.112000
     38 H9         166.8460    -7.6460    39.3790 ha         1 KZK       0.110000
     39 H10        164.5190    -7.3210    40.1320 ha         1 KZK       0.111000
     40 H11        162.7960    -6.4280    38.5860 ha         1 KZK       0.114000
     41 H12        167.4550   -13.8350    38.3520 h1         1 KZK       0.061450
     42 H13        169.0020   -13.9020    37.5570 h1         1 KZK       0.061450
     43 H14        168.7210   -12.3440    39.6220 hc         1 KZK       0.046450
     44 H15        169.6290   -11.7320    38.2520 hc         1 KZK       0.046450
     45 H16        167.8030   -10.3780    37.4790 hc         1 KZK       0.041450
     46 H17        168.0650   -10.0420    39.1660 hc         1 KZK       0.041450
     47 H18        165.6970   -10.1320    38.6550 hc         1 KZK       0.041450
     48 H19        166.1050   -11.3830    39.8080 hc         1 KZK       0.041450
     49 H20        164.5150   -11.8590    37.6980 hc         1 KZK       0.046450
     50 H21        165.5390   -13.1100    38.3380 hc         1 KZK       0.046450
     51 H22        166.2660   -11.2780    36.0160 h1         1 KZK       0.061450
     52 H23        165.5140   -12.8570    35.8330 h1         1 KZK       0.061450
     53 H24        167.5550   -10.2370    34.3260 ha         1 KZK       0.170000
     54 H25        172.1280    -9.9150    36.1910 ha         1 KZK       0.121000
     55 H26        171.0540   -12.1190    35.9520 ha         1 KZK       0.137000
     56 N          168.4880    -7.7100    34.6120 ns         1 KZK      -0.146000
     57 H4         162.4940    -5.5420    35.9230 hn         1 KZK       0.353000
     58 H27        168.9770    -6.8920    34.9450 hn         1 KZK       0.165000
@<TRIPOS>BOND
     1     1    16 2   
     2     2    27 1   
     3     2    31 1   
     4     2    32 1   
     5     2    33 1   
     6     3    25 ar  
     7     3    26 ar  
     8     3    56 1   
     9     4     6 1   
    10     4    30 2   
    11     4    56 1   
    12     5     9 1   
    13     5    10 1   
    14     5    57 1   
    15     6     7 1   
    16     6    34 1   
    17     6    35 1   
    18     7     9 2   
    19     7    11 1   
    20     8    16 1   
    21     8    18 1   
    22     8    23 1   
    23     9    36 1   
    24    10    11 ar  
    25    10    15 ar  
    26    11    12 ar  
    27    12    13 ar  
    28    12    37 1   
    29    13    14 ar  
    30    13    38 1   
    31    14    15 ar  
    32    14    39 1   
    33    15    40 1   
    34    16    17 2   
    35    16    24 1   
    36    18    19 1   
    37    18    41 1   
    38    18    42 1   
    39    19    20 1   
    40    19    43 1   
    41    19    44 1   
    42    20    21 1   
    43    20    45 1   
    44    20    46 1   
    45    21    22 1   
    46    21    47 1   
    47    21    48 1   
    48    22    23 1   
    49    22    49 1   
    50    22    50 1   
    51    23    51 1   
    52    23    52 1   
    53    24    25 ar  
    54    24    29 ar  
    55    25    53 1   
    56    26    27 1   
    57    26    28 ar  
    58    28    29 ar  
    59    28    54 1   
    60    29    55 1   
    61    56    58 1   
@<TRIPOS>SUBSTRUCTURE
     1 KZK         1 TEMP              0 ****  ****    0 ROOT
