@<TRIPOS>MOLECULE
KZL
   53    55     1     0     0
SMALL
No Charge or Current Charge


@<TRIPOS>ATOM
      1 C1          -3.3030    -1.1060     0.8460 ca         1 KZL       0.193100
      2 C2          -4.2770    -0.4270     0.0860 ca         1 KZL      -0.308000
      3 C3          -4.0130     0.8750    -0.3850 ca         1 KZL       0.193100
      4 C4          -2.7840     1.4830    -0.1010 ca         1 KZL      -0.215500
      5 C5          -1.8130     0.8010     0.6380 ca         1 KZL       0.378000
      6 C6          -2.0830    -0.4820     1.1240 ca         1 KZL      -0.215500
      7 O7          -3.4990    -2.3780     1.3400 os         1 KZL      -0.343100
      8 C8          -4.7090    -3.1180     1.1030 c3         1 KZL       0.150900
      9 O9          -4.9250     1.5950    -1.1270 os         1 KZL      -0.343100
     10 C10         -6.2180     1.0700    -1.4790 c3         1 KZL       0.150900
     11 N11         -0.6100     1.4280     0.9160 nu         1 KZL      -0.928900
     12 C12          0.6360     1.2220     0.4400 cc         1 KZL       0.751900
     13 N13          0.8390    -0.1020     0.1740 nc         1 KZL      -0.860000
     14 C14          2.0140    -0.4700    -0.3010 cd         1 KZL       0.887400
     15 N15          3.0290     0.4510    -0.4380 na         1 KZL      -0.262300
     16 C16          2.8050     1.7590    -0.3150 cd         1 KZL       0.016000
     17 C17          1.5540     2.2260     0.1860 cd         1 KZL      -0.384600
     18 C18          1.1870     3.6410     0.4170 c          1 KZL       0.659700
     19 O19          0.1000     4.0170     0.8220 o          1 KZL      -0.687100
     20 N20          2.1340     4.5510     0.1560 nt         1 KZL      -0.588000
     21 N21          3.8740     2.4100    -0.7370 nc         1 KZL      -0.180000
     22 N22          4.7660     1.4500    -1.2260 nc         1 KZL      -0.335700
     23 C23          4.2090     0.2470    -1.0830 cd         1 KZL       0.316700
     24 N24          2.2130    -1.7770    -0.6110 nu         1 KZL      -0.925100
     25 C25          1.4500    -2.9780    -0.2550 c3         1 KZL       0.265200
     26 C26          2.3330    -4.1600    -0.7950 c3         1 KZL       0.133800
     27 C27          1.3130    -3.0880     1.2860 c3         1 KZL      -0.106100
     28 C28          0.0690    -3.0000    -0.9530 c3         1 KZL      -0.106100
     29 N29          3.7970    -4.0000    -0.4990 n8         1 KZL      -1.038200
     30 H2          -5.2250    -0.9030    -0.1330 ha         1 KZL       0.121000
     31 H4          -2.5870     2.4840    -0.4690 ha         1 KZL       0.144000
     32 H6          -1.3370    -0.9990     1.7160 ha         1 KZL       0.144000
     33 H8          -5.5770    -2.5890     1.5180 h1         1 KZL       0.039700
     34 H8A         -4.8690    -3.2700     0.0280 h1         1 KZL       0.039700
     35 H8B         -4.6520    -4.1030     1.5810 h1         1 KZL       0.039700
     36 H10         -6.1170     0.1570    -2.0800 h1         1 KZL       0.039700
     37 H10A        -6.8020     0.8370    -0.5790 h1         1 KZL       0.039700
     38 H10B        -6.7790     1.8050    -2.0680 h1         1 KZL       0.039700
     39 HN11        -0.7050     2.4440     0.9980 hn         1 KZL       0.564000
     40 HN20         3.0330     4.2450    -0.1810 hn         1 KZL       0.334500
     41 HN2A         1.9340     5.5290     0.2970 hn         1 KZL       0.334500
     42 H23          4.6000    -0.7160    -1.3880 h5         1 KZL       0.074800
     43 HN24         3.1890    -2.0080    -0.7760 hn         1 KZL       0.536000
     44 H26          1.9780    -5.1150    -0.3830 h1         1 KZL       0.047700
     45 H26A         2.2220    -4.2100    -1.8880 h1         1 KZL       0.047700
     46 H27          0.6710    -2.3000     1.6920 hc         1 KZL       0.053033
     47 H27A         0.8640    -4.0500     1.5620 hc         1 KZL       0.053033
     48 H27B         2.2890    -3.0160     1.7790 hc         1 KZL       0.053033
     49 H28          0.1760    -2.8590    -2.0350 hc         1 KZL       0.053033
     50 H28A        -0.4300    -3.9620    -0.7840 hc         1 KZL       0.053033
     51 H28B        -0.5920    -2.2160    -0.5720 hc         1 KZL       0.053033
     52 HN29         3.9500    -4.1340     0.5090 hn         1 KZL       0.414000
     53 HN2B         4.3090    -4.7900    -0.9140 hn         1 KZL       0.414000
@<TRIPOS>BOND
     1     1     2 ar  
     2     1     6 ar  
     3     1     7 1   
     4     2     3 ar  
     5     2    30 1   
     6     3     4 ar  
     7     3     9 1   
     8     4     5 ar  
     9     4    31 1   
    10     5     6 ar  
    11     5    11 1   
    12     6    32 1   
    13     7     8 1   
    14     8    33 1   
    15     8    34 1   
    16     8    35 1   
    17     9    10 1   
    18    10    36 1   
    19    10    37 1   
    20    10    38 1   
    21    11    12 1   
    22    11    39 1   
    23    12    13 1   
    24    12    17 2   
    25    13    14 2   
    26    14    15 1   
    27    14    24 1   
    28    15    16 1   
    29    15    23 1   
    30    16    17 1   
    31    16    21 2   
    32    17    18 1   
    33    18    19 2   
    34    18    20 1   
    35    20    40 1   
    36    20    41 1   
    37    21    22 1   
    38    22    23 2   
    39    23    42 1   
    40    24    25 1   
    41    24    43 1   
    42    25    26 1   
    43    25    27 1   
    44    25    28 1   
    45    26    29 1   
    46    26    44 1   
    47    26    45 1   
    48    27    46 1   
    49    27    47 1   
    50    27    48 1   
    51    28    49 1   
    52    28    50 1   
    53    28    51 1   
    54    29    52 1   
    55    29    53 1   
@<TRIPOS>SUBSTRUCTURE
     1 KZL         1 TEMP              0 ****  ****    0 ROOT
