@<TRIPOS>MOLECULE
KZL
   53    55     1     0     0
SMALL
abcg2


@<TRIPOS>ATOM
      1 C1          -3.2200    -1.0930     0.5780 ca         1 KZL       0.193100
      2 C2          -4.3790    -0.4510     0.1440 ca         1 KZL      -0.308000
      3 C3          -4.2790     0.8610    -0.3170 ca         1 KZL       0.193100
      4 C4          -3.0510     1.5100    -0.3550 ca         1 KZL      -0.215500
      5 C5          -1.9000     0.8510     0.0800 ca         1 KZL       0.378000
      6 C6          -1.9840    -0.4520     0.5590 ca         1 KZL      -0.215500
      7 O7          -3.2070    -2.3530     1.0500 os         1 KZL      -0.343100
      8 C8          -4.4230    -3.0680     1.1300 c3         1 KZL       0.150900
      9 O9          -5.3320     1.5750    -0.7550 os         1 KZL      -0.343100
     10 C10         -6.6130     0.9780    -0.7520 c3         1 KZL       0.150900
     11 N11         -0.7260     1.6020     0.0570 nu         1 KZL      -0.928900
     12 C12          0.5660     1.2280    -0.0210 cc         1 KZL       0.751900
     13 N13          0.8330    -0.0880    -0.1180 nc         1 KZL      -0.860000
     14 C14          2.0560    -0.5230    -0.2300 cd         1 KZL       0.887400
     15 N15          3.1040     0.3770    -0.2200 na         1 KZL      -0.262300
     16 C16          2.8920     1.7280    -0.1130 cd         1 KZL       0.016000
     17 C17          1.5690     2.2210    -0.0130 cd         1 KZL      -0.384600
     18 C18          1.2770     3.6550     0.0650 c          1 KZL       0.659700
     19 O19          0.1130     4.0870     0.1100 o          1 KZL      -0.687100
     20 N20          2.3240     4.4910     0.0860 nt         1 KZL      -0.588000
     21 N21          4.0560     2.3390    -0.1330 nc         1 KZL      -0.180000
     22 N22          5.0230     1.3930    -0.2570 nc         1 KZL      -0.335700
     23 C23          4.4670     0.2320    -0.3110 cd         1 KZL       0.316700
     24 N24          2.3700    -1.7980    -0.3740 nu         1 KZL      -0.925100
     25 C25          1.4720    -2.9540    -0.3460 c3         1 KZL       0.265200
     26 C26          2.3760    -4.1290    -0.7780 c3         1 KZL       0.133800
     27 C27          0.9470    -3.1840     1.0710 c3         1 KZL      -0.106100
     28 C28          0.3340    -2.8410    -1.3520 c3         1 KZL      -0.106100
     29 N29          3.6630    -4.0780    -0.1060 n8         1 KZL      -1.038200
     30 H2          -5.3320    -0.9580     0.1710 ha         1 KZL       0.121000
     31 H4          -2.9950     2.5250    -0.7300 ha         1 KZL       0.144000
     32 H6          -1.1130    -0.9730     0.9180 ha         1 KZL       0.144000
     33 H8          -5.1470    -2.5760     1.7860 h1         1 KZL       0.039700
     34 H8A         -4.8800    -3.2120     0.1470 h1         1 KZL       0.039700
     35 H8B         -4.1810    -4.0420     1.5480 h1         1 KZL       0.039700
     36 H10         -6.6530     0.0920    -1.3910 h1         1 KZL       0.039700
     37 H10A        -6.9340     0.7000     0.2550 h1         1 KZL       0.039700
     38 H10B        -7.3010     1.7230    -1.1440 h1         1 KZL       0.039700
     39 HN11        -0.8280     2.6200     0.0500 hn         1 KZL       0.564000
     40 HN20         3.2760     4.1520     0.0340 hn         1 KZL       0.334500
     41 HN2A         2.1580     5.4830     0.1170 hn         1 KZL       0.334500
     42 H23          4.9810    -0.7100    -0.4160 h5         1 KZL       0.074800
     43 HN24         3.3370    -2.1060    -0.2640 hn         1 KZL       0.536000
     44 H26          1.8210    -5.0590    -0.6150 h1         1 KZL       0.047700
     45 H26A         2.5580    -4.0470    -1.8520 h1         1 KZL       0.047700
     46 H27          0.4050    -2.3160     1.4420 hc         1 KZL       0.053033
     47 H27A         0.2690    -4.0380     1.0880 hc         1 KZL       0.053033
     48 H27B         1.7590    -3.3840     1.7720 hc         1 KZL       0.053033
     49 H28          0.7130    -2.5710    -2.3390 hc         1 KZL       0.053033
     50 H28A        -0.1580    -3.8120    -1.4370 hc         1 KZL       0.053033
     51 H28B        -0.4160    -2.1110    -1.0590 hc         1 KZL       0.053033
     52 HN29         3.6120    -4.4860     0.8180 hn         1 KZL       0.414000
     53 HN2B         4.3520    -4.6080    -0.6210 hn         1 KZL       0.414000
@<TRIPOS>BOND
     1     1     2 ar  
     2     1     6 ar  
     3     1     7 1   
     4     2     3 ar  
     5     2    30 1   
     6     3     4 ar  
     7     3     9 1   
     8     4     5 ar  
     9     4    31 1   
    10     5     6 ar  
    11     5    11 1   
    12     6    32 1   
    13     7     8 1   
    14     8    33 1   
    15     8    34 1   
    16     8    35 1   
    17     9    10 1   
    18    10    36 1   
    19    10    37 1   
    20    10    38 1   
    21    11    12 1   
    22    11    39 1   
    23    12    13 1   
    24    12    17 2   
    25    13    14 2   
    26    14    15 1   
    27    14    24 1   
    28    15    16 1   
    29    15    23 1   
    30    16    17 1   
    31    16    21 2   
    32    17    18 1   
    33    18    19 2   
    34    18    20 1   
    35    20    40 1   
    36    20    41 1   
    37    21    22 1   
    38    22    23 2   
    39    23    42 1   
    40    24    25 1   
    41    24    43 1   
    42    25    26 1   
    43    25    27 1   
    44    25    28 1   
    45    26    29 1   
    46    26    44 1   
    47    26    45 1   
    48    27    46 1   
    49    27    47 1   
    50    27    48 1   
    51    28    49 1   
    52    28    50 1   
    53    28    51 1   
    54    29    52 1   
    55    29    53 1   
@<TRIPOS>SUBSTRUCTURE
     1 KZL         1 TEMP              0 ****  ****    0 ROOT
