@<TRIPOS>MOLECULE
KZM
   68    72     1     0     0
SMALL
abcg2


@<TRIPOS>ATOM
      1 O1           1.0940    -4.1780     0.4990 o          1 KZM      -0.683100
      2 O2           4.9410     2.0250    -0.5410 os         1 KZM      -0.343600
      3 O3           6.7380    -2.4130    -0.0210 os         1 KZM      -0.343600
      4 N4           0.6780     0.0030    -0.0990 nc         1 KZM      -0.870000
      5 N5          -0.7390     1.8100    -0.3640 nu         1 KZM      -0.889100
      6 N6          -1.1380    -4.4080     0.6020 nt         1 KZM      -0.588000
      7 C7          -1.4970    -1.6350     0.1790 cd         1 KZM       0.068000
      8 C9           5.9600    -0.1450    -0.2980 ca         1 KZM      -0.310000
      9 C10          1.1110     3.1280     0.6250 c6         1 KZM      -0.088400
     10 C11          4.4590    -2.0130     0.0480 ca         1 KZM      -0.222500
     11 C12          0.8570    -1.3110     0.0980 cc         1 KZM       0.755900
     12 C13         -0.0350    -3.6650     0.4590 c          1 KZM       0.660700
     13 N14         -1.6070    -0.2930    -0.0300 na         1 KZM       0.005900
     14 C15          3.5530     0.2070    -0.2150 ca         1 KZM      -0.222500
     15 C16         -0.2190    -2.2220     0.2550 cd         1 KZM      -0.388600
     16 C17          3.3560    -1.1560    -0.0130 ca         1 KZM       0.379000
     17 C18          4.8510     0.6950    -0.3530 ca         1 KZM       0.195600
     18 C19          0.3290     2.7620    -0.6380 c6         1 KZM       0.248500
     19 C20          6.2170     2.6100    -0.7010 c3         1 KZM       0.150900
     20 C21         -0.5220     0.5210    -0.1660 cd         1 KZM       0.881400
     21 C22          5.7440    -1.5090    -0.0930 ca         1 KZM       0.195600
     22 C23         -0.2800     4.0140    -1.2830 c6         1 KZM       0.147500
     23 C24          0.2800     3.9350     1.6130 c6         1 KZM      -0.076400
     24 C25         -0.2840     5.1890     0.9570 c6         1 KZM      -0.074400
     25 C26          8.0760    -1.9700    -0.1380 c3         1 KZM       0.150900
     26 C27         -1.0920     4.8350    -0.2850 c6         1 KZM      -0.077400
     27 N28         -1.1280     3.6260    -2.3970 n8         1 KZM      -1.017200
     28 N29         -2.7200    -2.1310     0.2660 nc         1 KZM      -0.472300
     29 N30         -2.9000     0.0830    -0.0820 nd         1 KZM      -0.610100
     30 C31         -3.5270    -1.0550     0.1010 cc         1 KZM       0.617900
     31 C32         -4.9860    -1.1540     0.1270 ca         1 KZM      -0.069900
     32 C33         -5.5950    -2.3820     0.3690 ca         1 KZM      -0.104000
     33 C34         -5.7650    -0.0180    -0.0890 ca         1 KZM      -0.174000
     34 C35         -6.9800    -2.4600     0.3940 ca         1 KZM      -0.088000
     35 C36         -7.1510    -0.1080    -0.0610 ca         1 KZM       0.128100
     36 C37         -7.7620    -1.3370     0.1820 ca         1 KZM      -0.129000
     37 O66         -7.9490     0.9580    -0.2640 oh         1 KZM      -0.535100
     38 HN6         -1.0460    -5.4040     0.7130 hn         1 KZM       0.333000
     39 HN6A        -2.0640    -4.0040     0.5510 hn         1 KZM       0.333000
     40 HN8          2.1420    -2.7910     0.2830 hn         1 KZM       0.561000
     41 H9           6.9600     0.2450    -0.4140 ha         1 KZM       0.121000
     42 H10          1.4960     2.2240     1.0960 hc         1 KZM       0.063700
     43 H10A         1.9850     3.7090     0.3150 hc         1 KZM       0.063700
     44 H11          4.3220    -3.0770     0.2030 ha         1 KZM       0.148000
     45 H15          2.7260     0.8920    -0.2660 ha         1 KZM       0.148000
     46 H19          1.0140     2.3010    -1.3580 h1         1 KZM       0.068700
     47 H20          6.0520     3.6780    -0.8220 h1         1 KZM       0.039700
     48 H20A         6.8550     2.4500     0.1720 h1         1 KZM       0.039700
     49 H20B         6.7320     2.2320    -1.5870 h1         1 KZM       0.039700
     50 H23          0.5830     4.6250    -1.5920 h1         1 KZM       0.033700
     51 H24         -0.5410     3.3200     1.9940 hc         1 KZM       0.047700
     52 H24A         0.8930     4.1990     2.4770 hc         1 KZM       0.047700
     53 H25         -0.9110     5.7410     1.6610 hc         1 KZM       0.042700
     54 H25A         0.5380     5.8600     0.6840 hc         1 KZM       0.042700
     55 H26          8.2730    -1.5170    -1.1130 h1         1 KZM       0.039700
     56 H26A         8.3390    -1.2520     0.6430 h1         1 KZM       0.039700
     57 H26B         8.7030    -2.8510    -0.0280 h1         1 KZM       0.039700
     58 H27         -1.4440     5.7440    -0.7810 hc         1 KZM       0.047700
     59 H27A        -1.9920     4.2820     0.0050 hc         1 KZM       0.047700
     60 HN28        -1.5330     4.4520    -2.8190 hn         1 KZM       0.405500
     61 HN2A        -0.5740     3.1840    -3.1210 hn         1 KZM       0.405500
     62 H33         -4.9940    -3.2640     0.5390 ha         1 KZM       0.134000
     63 H34         -5.2870     0.9360    -0.2820 ha         1 KZM       0.128000
     64 H35         -7.4590    -3.4120     0.5850 ha         1 KZM       0.117000
     65 H37         -8.8420    -1.4060     0.2040 ha         1 KZM       0.128000
     66 HO66        -7.4210     1.7520    -0.4050 ho         1 KZM       0.465000
     67 HN5         -1.6820     2.0850    -0.6050 hn         1 KZM       0.543000
     68 N8           2.1200    -1.7780     0.1410 nu         1 KZM      -0.922900
@<TRIPOS>BOND
     1     1    12 2   
     2     2    17 1   
     3     2    19 1   
     4     3    21 1   
     5     3    25 1   
     6     4    11 1   
     7     4    20 2   
     8     5    18 1   
     9     5    20 1   
    10     5    67 1   
    11     6    12 1   
    12     6    38 1   
    13     6    39 1   
    14     7    13 1   
    15     7    15 1   
    16     7    28 2   
    17     8    17 ar  
    18     8    21 ar  
    19     8    41 1   
    20     9    18 1   
    21     9    23 1   
    22     9    42 1   
    23     9    43 1   
    24    10    16 ar  
    25    10    21 ar  
    26    10    44 1   
    27    11    15 2   
    28    11    68 1   
    29    12    15 1   
    30    13    20 1   
    31    13    29 1   
    32    14    16 ar  
    33    14    17 ar  
    34    14    45 1   
    35    16    68 1   
    36    18    22 1   
    37    18    46 1   
    38    19    47 1   
    39    19    48 1   
    40    19    49 1   
    41    22    26 1   
    42    22    27 1   
    43    22    50 1   
    44    23    24 1   
    45    23    51 1   
    46    23    52 1   
    47    24    26 1   
    48    24    53 1   
    49    24    54 1   
    50    25    55 1   
    51    25    56 1   
    52    25    57 1   
    53    26    58 1   
    54    26    59 1   
    55    27    60 1   
    56    27    61 1   
    57    28    30 1   
    58    29    30 2   
    59    30    31 1   
    60    31    32 ar  
    61    31    33 ar  
    62    32    34 ar  
    63    32    62 1   
    64    33    35 ar  
    65    33    63 1   
    66    34    36 ar  
    67    34    64 1   
    68    35    36 ar  
    69    35    37 1   
    70    36    65 1   
    71    37    66 1   
    72    40    68 1   
@<TRIPOS>SUBSTRUCTURE
     1 KZM         1 TEMP              0 ****  ****    0 ROOT
