@<TRIPOS>MOLECULE
KZM
   68    72     1     0     0
SMALL
No Charge or Current Charge


@<TRIPOS>ATOM
      1 O1           1.1650    -4.0690     1.3740 o          1 KZM      -0.683100
      2 O2           5.3100     2.0040     0.8700 os         1 KZM      -0.343600
      3 O3           5.9980    -2.2320    -1.4720 os         1 KZM      -0.343600
      4 N4           0.7000     0.0940     0.7560 nc         1 KZM      -0.870000
      5 N5          -0.6430     1.8900     0.2480 nu         1 KZM      -0.889100
      6 N6          -0.9930    -4.4170     1.0740 nt         1 KZM      -0.588000
      7 C7          -1.4860    -1.5990     0.6230 cd         1 KZM       0.068000
      8 C9           5.7170    -0.0850    -0.3350 ca         1 KZM      -0.310000
      9 C10          1.2920     3.4250     0.6540 c6         1 KZM      -0.088400
     10 C11          4.0770    -1.8660    -0.1210 ca         1 KZM      -0.222500
     11 C12          0.8270    -1.2470     0.9750 cc         1 KZM       0.755900
     12 C13          0.0640    -3.6000     1.1410 c          1 KZM       0.660700
     13 N14         -1.6310    -0.2760     0.4220 na         1 KZM       0.005900
     14 C15          3.7410     0.2280     1.0390 ca         1 KZM      -0.222500
     15 C16         -0.2080    -2.1640     0.9150 cd         1 KZM      -0.388600
     16 C17          3.2980    -1.0570     0.7100 ca         1 KZM       0.379000
     17 C18          4.9400     0.7240     0.5170 ca         1 KZM       0.195600
     18 C19          0.4140     2.6890    -0.3960 c6         1 KZM       0.248500
     19 C20          6.5170     2.6180     0.3830 c3         1 KZM       0.150900
     20 C21         -0.5060     0.5610     0.4740 cd         1 KZM       0.881400
     21 C22          5.2820    -1.3880    -0.6500 ca         1 KZM       0.195600
     22 C23         -0.2470     3.6940    -1.4140 c6         1 KZM       0.147500
     23 C24          0.5510     4.5990     1.3430 c6         1 KZM      -0.076400
     24 C25         -0.0070     5.5930     0.2980 c6         1 KZM      -0.074400
     25 C26          7.2480    -1.8460    -2.0700 c3         1 KZM       0.150900
     26 C27         -0.9540     4.8760    -0.6940 c6         1 KZM      -0.077400
     27 N28         -1.2290     3.0180    -2.3090 n8         1 KZM      -1.017200
     28 N29         -2.6640    -2.1630     0.4900 nc         1 KZM      -0.472300
     29 N30         -2.9210     0.1010     0.1270 nd         1 KZM      -0.610100
     30 C31         -3.4950    -1.1010     0.1940 cc         1 KZM       0.617900
     31 C32         -4.9400    -1.3200    -0.0370 ca         1 KZM      -0.069900
     32 C33         -5.5050    -2.6170     0.0420 ca         1 KZM      -0.104000
     33 C34         -5.7990    -0.2340    -0.3450 ca         1 KZM      -0.174000
     34 C35         -6.8780    -2.8200    -0.1790 ca         1 KZM      -0.088000
     35 C36         -7.1710    -0.4410    -0.5640 ca         1 KZM       0.128100
     36 C37         -7.7110    -1.7310    -0.4820 ca         1 KZM      -0.129000
     37 O66         -7.9850     0.6120    -0.8590 oh         1 KZM      -0.535100
     38 HN6         -0.8700    -5.4060     1.2180 hn         1 KZM       0.333000
     39 HN6A        -1.9000    -4.0200     0.8770 hn         1 KZM       0.333000
     40 HN8          2.1340    -2.5770     1.3380 hn         1 KZM       0.561000
     41 H9           6.6480     0.2910    -0.7430 ha         1 KZM       0.121000
     42 H10          1.6500     2.7160     1.4120 hc         1 KZM       0.063700
     43 H10A         2.1910     3.8120     0.1550 hc         1 KZM       0.063700
     44 H11          3.7460    -2.8690    -0.3720 ha         1 KZM       0.148000
     45 H15          3.1500     0.8460     1.7040 ha         1 KZM       0.148000
     46 H19          1.0750     2.0270    -0.9780 h1         1 KZM       0.068700
     47 H20          6.6150     3.6340     0.7850 h1         1 KZM       0.039700
     48 H20A         7.3990     2.0430     0.6940 h1         1 KZM       0.039700
     49 H20B         6.5070     2.6840    -0.7120 h1         1 KZM       0.039700
     50 H23          0.5460     4.1100    -2.0530 h1         1 KZM       0.033700
     51 H24         -0.2680     4.2100     1.9630 hc         1 KZM       0.047700
     52 H24A         1.2360     5.1210     2.0250 hc         1 KZM       0.047700
     53 H25         -0.5460     6.4030     0.8070 hc         1 KZM       0.042700
     54 H25A         0.8210     6.0630    -0.2500 hc         1 KZM       0.042700
     55 H26          7.1160    -0.9700    -2.7180 h1         1 KZM       0.039700
     56 H26A         7.9920    -1.6060    -1.3000 h1         1 KZM       0.039700
     57 H26B         7.6450    -2.6650    -2.6830 h1         1 KZM       0.039700
     58 H27         -1.3180     5.6010    -1.4350 hc         1 KZM       0.047700
     59 H27A        -1.8400     4.5150    -0.1530 hc         1 KZM       0.047700
     60 HN28        -1.6250     3.7150    -2.9500 hn         1 KZM       0.405500
     61 HN2A        -0.7240     2.3830    -2.9390 hn         1 KZM       0.405500
     62 H33         -4.8840    -3.4790     0.2750 ha         1 KZM       0.134000
     63 H34         -5.3950     0.7730    -0.4130 ha         1 KZM       0.128000
     64 H35         -7.2970    -3.8220    -0.1140 ha         1 KZM       0.117000
     65 H37         -8.7730    -1.8890    -0.6520 ha         1 KZM       0.128000
     66 HO66        -7.4440     1.4300    -0.8760 ho         1 KZM       0.465000
     67 HN5         -1.5640     2.0240    -0.1640 hn         1 KZM       0.543000
     68 N8           2.1150    -1.5600     1.2270 nu         1 KZM      -0.922900
@<TRIPOS>BOND
     1     1    12 2   
     2     2    17 1   
     3     2    19 1   
     4     3    21 1   
     5     3    25 1   
     6     4    11 1   
     7     4    20 2   
     8     5    18 1   
     9     5    20 1   
    10     5    67 1   
    11     6    12 1   
    12     6    38 1   
    13     6    39 1   
    14     7    13 1   
    15     7    15 1   
    16     7    28 2   
    17     8    17 ar  
    18     8    21 ar  
    19     8    41 1   
    20     9    18 1   
    21     9    23 1   
    22     9    42 1   
    23     9    43 1   
    24    10    16 ar  
    25    10    21 ar  
    26    10    44 1   
    27    11    15 2   
    28    11    68 1   
    29    12    15 1   
    30    13    20 1   
    31    13    29 1   
    32    14    16 ar  
    33    14    17 ar  
    34    14    45 1   
    35    16    68 1   
    36    18    22 1   
    37    18    46 1   
    38    19    47 1   
    39    19    48 1   
    40    19    49 1   
    41    22    26 1   
    42    22    27 1   
    43    22    50 1   
    44    23    24 1   
    45    23    51 1   
    46    23    52 1   
    47    24    26 1   
    48    24    53 1   
    49    24    54 1   
    50    25    55 1   
    51    25    56 1   
    52    25    57 1   
    53    26    58 1   
    54    26    59 1   
    55    27    60 1   
    56    27    61 1   
    57    28    30 1   
    58    29    30 2   
    59    30    31 1   
    60    31    32 ar  
    61    31    33 ar  
    62    32    34 ar  
    63    32    62 1   
    64    33    35 ar  
    65    33    63 1   
    66    34    36 ar  
    67    34    64 1   
    68    35    36 ar  
    69    35    37 1   
    70    36    65 1   
    71    37    66 1   
    72    40    68 1   
@<TRIPOS>SUBSTRUCTURE
     1 KZM         1 TEMP              0 ****  ****    0 ROOT
