@<TRIPOS>MOLECULE
KZN
   60    64     1     0     0
SMALL
bcc


@<TRIPOS>ATOM
      1 O3           2.4230     0.8310     1.4680 o          1 KZN      -0.552100
      2 C4          -0.6120     5.7220    -0.2060 c3         1 KZN       0.126700
      3 C5           0.1410     2.2240     0.4590 ca         1 KZN       0.009600
      4 O4          -1.5170    -1.2740     2.4150 o          1 KZN      -0.598800
      5 C6           2.5070     1.5780     0.5140 c          1 KZN       0.667100
      6 N1           5.8280     1.1310     0.8720 nc         1 KZN      -0.414300
      7 C7           3.8320     1.8830    -0.1580 c3         1 KZN      -0.186700
      8 C8           4.8450     0.8170     0.1080 cd         1 KZN       0.385900
      9 N2           6.7560     0.2100     1.1420 ns         1 KZN      -0.300900
     10 C9           6.8100    -1.0810     0.7070 c          1 KZN       0.699100
     11 C10          5.7010    -1.4520    -0.1710 ca         1 KZN      -0.142600
     12 C11          5.6280    -2.7400    -0.7010 ca         1 KZN      -0.065000
     13 C12          4.5820    -3.0800    -1.5330 ca         1 KZN      -0.131000
     14 N3          -3.2620    -1.0170     0.6440 n3         1 KZN      -0.702500
     15 C13          3.6000    -2.1350    -1.8440 ca         1 KZN      -0.100000
     16 C14          3.6640    -0.8600    -1.3230 ca         1 KZN      -0.120000
     17 C15          4.7180    -0.5010    -0.4750 ca         1 KZN      -0.105900
     18 O           -3.6190     0.0150     2.8930 o          1 KZN      -0.598800
     19 C25         -2.3660    -1.4780    -0.4190 c6         1 KZN       0.190800
     20 C24         -3.0710    -2.5840    -1.1790 c6         1 KZN      -0.028100
     21 C23         -4.4520    -2.1710    -1.6040 ca         1 KZN      -0.060300
     22 C22         -5.1120    -2.8510    -2.6270 ca         1 KZN      -0.126000
     23 C21         -6.3870    -2.4840    -3.0230 ca         1 KZN      -0.122000
     24 C20         -7.0240    -1.4200    -2.3920 ca         1 KZN      -0.127000
     25 C19         -6.3770    -0.7410    -1.3740 ca         1 KZN      -0.124000
     26 C18         -5.0950    -1.1100    -0.9730 ca         1 KZN      -0.079300
     27 C17         -4.4320    -0.3170     0.1250 c6         1 KZN       0.235100
     28 C           -1.7650     1.1390     1.4330 ca         1 KZN      -0.330500
     29 C16         -0.4580     1.0820     0.9570 ca         1 KZN      -0.011000
     30 C3          -0.5860     3.4310     0.4180 ca         1 KZN       0.160100
     31 O1           0.0630     4.4790    -0.0920 os         1 KZN      -0.327900
     32 C2          -1.8930     3.4670     0.8910 ca         1 KZN      -0.225000
     33 C1          -2.4830     2.3240     1.4070 ca         1 KZN      -0.007000
     34 N            1.4510     2.2300    -0.0350 ns         1 KZN      -0.480100
     35 O2           7.7190    -1.8280     1.0390 o          1 KZN      -0.615500
     36 H1          -1.4930     5.6430    -0.8460 h1         1 KZN       0.049033
     37 H2          -0.9100     6.1070     0.7710 h1         1 KZN       0.049033
     38 H3           0.0960     6.4110    -0.6570 h1         1 KZN       0.049033
     39 H4           3.6960     2.0420    -1.2310 hc         1 KZN       0.080200
     40 H5           4.2020     2.8280     0.2490 hc         1 KZN       0.080200
     41 H6           7.4970     0.5360     1.7470 hn         1 KZN       0.355500
     42 H7           6.3920    -3.4660    -0.4580 ha         1 KZN       0.159000
     43 H8           4.5210    -4.0770    -1.9480 ha         1 KZN       0.140000
     44 H9           2.7810    -2.4050    -2.4980 ha         1 KZN       0.134000
     45 H10          2.8970    -0.1430    -1.5840 ha         1 KZN       0.132000
     46 H11         -2.1110    -0.6500    -1.0910 h1         1 KZN       0.055700
     47 H12         -1.4420    -1.8610     0.0090 h1         1 KZN       0.055700
     48 H13         -2.4740    -2.8590    -2.0510 hc         1 KZN       0.061700
     49 H14         -3.1270    -3.4740    -0.5450 hc         1 KZN       0.061700
     50 H15         -4.6120    -3.6760    -3.1200 ha         1 KZN       0.130000
     51 H16         -6.8850    -3.0220    -3.8200 ha         1 KZN       0.133000
     52 H17         -8.0210    -1.1250    -2.6910 ha         1 KZN       0.133000
     53 H18         -6.8750     0.0850    -0.8790 ha         1 KZN       0.130000
     54 H19         -5.1470    -0.1640     0.9320 h1         1 KZN       0.061700
     55 H20         -4.1590     0.6740    -0.2670 h1         1 KZN       0.061700
     56 H21          0.0930     0.1540     0.9740 ha         1 KZN       0.176000
     57 H22         -2.4640     4.3850     0.8810 ha         1 KZN       0.142000
     58 H23         -3.4940     2.3790     1.7860 ha         1 KZN       0.155000
     59 H24          1.6490     2.8850    -0.7770 hn         1 KZN       0.327500
     60 S           -2.5470    -0.3450     1.9800 sy         1 KZN       1.296200
@<TRIPOS>BOND
     1     1     5 2   
     2     2    31 1   
     3     2    36 1   
     4     2    37 1   
     5     2    38 1   
     6     3    29 ar  
     7     3    30 ar  
     8     3    34 1   
     9     4    60 2   
    10     5     7 1   
    11     5    34 1   
    12     6     8 2   
    13     6     9 1   
    14     7     8 1   
    15     7    39 1   
    16     7    40 1   
    17     8    17 1   
    18     9    10 1   
    19     9    41 1   
    20    10    11 1   
    21    10    35 2   
    22    11    12 ar  
    23    11    17 ar  
    24    12    13 ar  
    25    12    42 1   
    26    13    15 ar  
    27    13    43 1   
    28    14    19 1   
    29    14    27 1   
    30    14    60 1   
    31    15    16 ar  
    32    15    44 1   
    33    16    17 ar  
    34    16    45 1   
    35    18    60 2   
    36    19    20 1   
    37    19    46 1   
    38    19    47 1   
    39    20    21 1   
    40    20    48 1   
    41    20    49 1   
    42    21    22 ar  
    43    21    26 ar  
    44    22    23 ar  
    45    22    50 1   
    46    23    24 ar  
    47    23    51 1   
    48    24    25 ar  
    49    24    52 1   
    50    25    26 ar  
    51    25    53 1   
    52    26    27 1   
    53    27    54 1   
    54    27    55 1   
    55    28    29 ar  
    56    28    33 ar  
    57    28    60 1   
    58    29    56 1   
    59    30    31 1   
    60    30    32 ar  
    61    32    33 ar  
    62    32    57 1   
    63    33    58 1   
    64    34    59 1   
@<TRIPOS>SUBSTRUCTURE
     1 KZN         1 TEMP              0 ****  ****    0 ROOT
