@<TRIPOS>MOLECULE
KZN
   60    64     1     0     0
SMALL
No Charge or Current Charge


@<TRIPOS>ATOM
      1 O3           1.1710    -0.0110     2.2480 o          1 KZN      -0.552100
      2 C4           1.4400     5.2490    -1.4490 c3         1 KZN       0.149900
      3 C5           0.2270     2.4270     0.6890 ca         1 KZN      -0.083000
      4 O4          -3.5930     1.2740     2.6670 o          1 KZN      -0.528000
      5 C6           1.9310     0.8250     1.7760 c          1 KZN       0.600100
      6 N1           4.2130    -1.5660     1.6760 nc         1 KZN      -0.414300
      7 C7           3.4410     0.6960     1.9230 c3         1 KZN      -0.186700
      8 C8           3.9670    -0.4110     1.0530 cd         1 KZN       0.385900
      9 N2           4.6630    -2.6450     0.9500 ns         1 KZN      -0.233900
     10 C9           4.9110    -2.7270    -0.4040 c          1 KZN       0.556600
     11 C10          4.6570    -1.4420    -1.1430 ca         1 KZN      -0.142600
     12 C11          4.8740    -1.3590    -2.5340 ca         1 KZN      -0.047000
     13 C12          4.6470    -0.1530    -3.2140 ca         1 KZN      -0.113000
     14 N3          -3.6610     0.0520     0.4540 n3         1 KZN      -0.702500
     15 C13          4.2080     0.9760    -2.5080 ca         1 KZN      -0.082000
     16 C14          3.9900     0.9030    -1.1230 ca         1 KZN      -0.102000
     17 C15          4.2010    -0.3070    -0.4190 ca         1 KZN      -0.105900
     18 O           -4.9040     2.2740     0.6980 o          1 KZN      -0.528000
     19 C25         -3.4370     0.0990    -1.0100 c6         1 KZN       0.190800
     20 C24         -3.0260    -1.2900    -1.5500 c6         1 KZN      -0.028100
     21 C23         -3.9070    -2.4240    -1.0250 ca         1 KZN      -0.060300
     22 C22         -3.8780    -3.6840    -1.6520 ca         1 KZN      -0.108000
     23 C21         -4.6700    -4.7370    -1.1640 ca         1 KZN      -0.104000
     24 C20         -5.4930    -4.5340    -0.0440 ca         1 KZN      -0.109000
     25 C19         -5.5220    -3.2800     0.5880 ca         1 KZN      -0.106000
     26 C18         -4.7280    -2.2210     0.1050 ca         1 KZN      -0.079300
     27 C17         -4.7840    -0.8520     0.7970 c6         1 KZN       0.235100
     28 C           -2.2180     2.3540     0.6950 ca         1 KZN      -0.330500
     29 C16         -0.9800     1.8310     1.1170 ca         1 KZN       0.007000
     30 C3           0.1790     3.5530    -0.1620 ca         1 KZN       0.160100
     31 O1           1.3780     4.1140    -0.5670 os         1 KZN      -0.351100
     32 C2          -1.0660     4.0700    -0.5820 ca         1 KZN      -0.207000
     33 C1          -2.2610     3.4720    -0.1570 ca         1 KZN       0.011000
     34 N            1.5140     1.9460     1.0710 ns         1 KZN      -0.154000
     35 O2           5.3030    -3.7570    -0.9370 o          1 KZN      -0.540000
     36 H1           0.9670     5.0230    -2.4130 h1         1 KZN       0.049033
     37 H2           0.9380     6.1180    -1.0040 h1         1 KZN       0.049033
     38 H3           2.4850     5.5240    -1.6400 h1         1 KZN       0.049033
     39 H4           3.9360     1.6360     1.6590 hc         1 KZN       0.080200
     40 H5           3.6600     0.4760     2.9740 hc         1 KZN       0.080200
     41 H6           4.8350    -3.5050     1.4630 hn         1 KZN       0.355500
     42 H7           5.2210    -2.2290    -3.0900 ha         1 KZN       0.141000
     43 H8           4.8160    -0.0930    -4.2870 ha         1 KZN       0.122000
     44 H9           4.0380     1.9130    -3.0350 ha         1 KZN       0.116000
     45 H10          3.6600     1.8010    -0.6110 ha         1 KZN       0.114000
     46 H11         -4.3510     0.4320    -1.5240 h1         1 KZN       0.055700
     47 H12         -2.6420     0.8080    -1.2790 h1         1 KZN       0.055700
     48 H13         -3.0430    -1.2720    -2.6470 hc         1 KZN       0.061700
     49 H14         -1.9860    -1.4880    -1.2590 hc         1 KZN       0.061700
     50 H15         -3.2390    -3.8480    -2.5170 ha         1 KZN       0.112000
     51 H16         -4.6450    -5.7090    -1.6530 ha         1 KZN       0.115000
     52 H17         -6.1070    -5.3490     0.3340 ha         1 KZN       0.115000
     53 H18         -6.1640    -3.1300     1.4540 ha         1 KZN       0.112000
     54 H19         -4.8110    -1.0200     1.8840 h1         1 KZN       0.061700
     55 H20         -5.7420    -0.3830     0.5280 h1         1 KZN       0.061700
     56 H21         -0.9780     0.9640     1.7710 ha         1 KZN       0.158000
     57 H22         -1.1270     4.9330    -1.2380 ha         1 KZN       0.124000
     58 H23         -3.2130     3.8810    -0.4930 ha         1 KZN       0.137000
     59 H24          2.2690     2.5400     0.7530 hn         1 KZN       0.161000
     60 S           -3.7410     1.5600     1.2360 sy         1 KZN       1.154600
@<TRIPOS>BOND
     1     1     5 2   
     2     2    31 1   
     3     2    36 1   
     4     2    37 1   
     5     2    38 1   
     6     3    29 ar  
     7     3    30 ar  
     8     3    34 1   
     9     4    60 2   
    10     5     7 1   
    11     5    34 1   
    12     6     8 2   
    13     6     9 1   
    14     7     8 1   
    15     7    39 1   
    16     7    40 1   
    17     8    17 1   
    18     9    10 1   
    19     9    41 1   
    20    10    11 1   
    21    10    35 2   
    22    11    12 ar  
    23    11    17 ar  
    24    12    13 ar  
    25    12    42 1   
    26    13    15 ar  
    27    13    43 1   
    28    14    19 1   
    29    14    27 1   
    30    14    60 1   
    31    15    16 ar  
    32    15    44 1   
    33    16    17 ar  
    34    16    45 1   
    35    18    60 2   
    36    19    20 1   
    37    19    46 1   
    38    19    47 1   
    39    20    21 1   
    40    20    48 1   
    41    20    49 1   
    42    21    22 ar  
    43    21    26 ar  
    44    22    23 ar  
    45    22    50 1   
    46    23    24 ar  
    47    23    51 1   
    48    24    25 ar  
    49    24    52 1   
    50    25    26 ar  
    51    25    53 1   
    52    26    27 1   
    53    27    54 1   
    54    27    55 1   
    55    28    29 ar  
    56    28    33 ar  
    57    28    60 1   
    58    29    56 1   
    59    30    31 1   
    60    30    32 ar  
    61    32    33 ar  
    62    32    57 1   
    63    33    58 1   
    64    34    59 1   
@<TRIPOS>SUBSTRUCTURE
     1 KZN         1 TEMP              0 ****  ****    0 ROOT
