@<TRIPOS>MOLECULE
KZP
   53    57     1     0     0
SMALL
No Charge or Current Charge


@<TRIPOS>ATOM
      1 C10         -0.6500    -1.0070    -0.1410 ca         1 KZP      -0.195000
      2 C13         -3.0510     0.2600     0.1800 ca         1 KZP       0.640900
      3 N14         -4.3160     0.7940     0.3590 nu         1 KZP      -0.941900
      4 C16         -6.7160     0.8700     0.5830 ca         1 KZP      -0.143000
      5 C30          7.4880     0.0850    -2.0460 ca         1 KZP       0.196900
      6 C32          5.3590     0.7700    -1.5500 ca         1 KZP       0.460900
      7 C15         -5.5800     0.5110    -0.1650 ca         1 KZP       0.315000
      8 C01          7.7000    -2.7410     2.0670 c3         1 KZP      -0.114100
      9 C05          4.2360    -0.7640     0.2250 cc         1 KZP       0.443800
     10 C06          2.9400    -0.2070     0.4110 cg         1 KZP      -0.115200
     11 C07          1.8510     0.3280     0.5470 ch         1 KZP      -0.087000
     12 C08          0.5830     0.9760     0.7090 ca         1 KZP       0.021000
     13 C09         -0.6260     0.3100     0.3690 ca         1 KZP       0.045000
     14 C11         -1.8750    -1.6090    -0.4520 ca         1 KZP       0.381900
     15 C17         -8.0090     0.6240     0.0840 ca         1 KZP      -0.075000
     16 C18         -8.1710     0.0270    -1.1770 ca         1 KZP       0.089000
     17 C20         -7.0440    -0.3180    -1.9390 ca         1 KZP      -0.075000
     18 C21         -5.7530    -0.0720    -1.4360 ca         1 KZP      -0.143000
     19 C22         -1.8700     0.9600     0.5350 ca         1 KZP      -0.129000
     20 C23         -1.9000     2.2810     1.0340 ca         1 KZP      -0.069000
     21 C24         -0.7080     2.9370     1.3700 ca         1 KZP      -0.124000
     22 C25          0.5360     2.3000     1.2150 ca         1 KZP      -0.028300
     23 C26          1.8050     3.0630     1.5980 c3         1 KZP      -0.054800
     24 C27          5.2680    -0.2920    -0.6600 ca         1 KZP      -0.375900
     25 C28          6.3290    -1.1370    -0.5040 ca         1 KZP       0.154500
     26 N03          5.9110    -2.0590     0.4390 na         1 KZP      -0.012100
     27 N04          4.6170    -1.8490     0.9070 nd         1 KZP      -0.499100
     28 N12         -3.0610    -0.9920    -0.2900 nb         1 KZP      -0.749000
     29 N29          7.4730    -0.9710    -1.1960 nb         1 KZP      -0.227000
     30 N31          6.4800     0.9690    -2.2580 nb         1 KZP      -0.309000
     31 Cl1         -9.7850    -0.2780    -1.8040 cl         1 KZP      -0.206000
     32 H1           0.2580    -1.5810    -0.3000 ha         1 KZP       0.141000
     33 H2          -4.3240     1.5000     1.0870 hn         1 KZP       0.495000
     34 H3          -6.6000     1.3320     1.5600 ha         1 KZP       0.130500
     35 H4           8.4020     0.2390    -2.6160 h5         1 KZP       0.047100
     36 H5           8.3760    -1.9440     1.7380 hc         1 KZP       0.050033
     37 H6           7.1230    -2.3750     2.9250 hc         1 KZP       0.050033
     38 H7           8.3060    -3.5930     2.3970 hc         1 KZP       0.050033
     39 H8           7.3540    -3.5450     0.0830 h1         1 KZP       0.071200
     40 H9           6.1110    -3.9790     1.2680 h1         1 KZP       0.071200
     41 H10         -1.9080    -2.6260    -0.8410 h4         1 KZP       0.021100
     42 H11         -8.8820     0.8970     0.6720 ha         1 KZP       0.128500
     43 H12         -7.1700    -0.7710    -2.9200 ha         1 KZP       0.128500
     44 H13         -4.8910    -0.3260    -2.0440 ha         1 KZP       0.130500
     45 H14         -2.8380     2.8160     1.1600 ha         1 KZP       0.110000
     46 H15         -0.7560     3.9550     1.7530 ha         1 KZP       0.118000
     47 H16          2.4700     3.1830     0.7340 hc         1 KZP       0.047367
     48 H17          1.5810     4.0660     1.9780 hc         1 KZP       0.047367
     49 H18          2.3620     2.5350     2.3820 hc         1 KZP       0.047367
     50 H19          3.4270     1.4130    -1.4400 hn         1 KZP       0.503500
     51 H20          4.4200     2.2560    -2.5800 hn         1 KZP       0.503500
     52 N33          4.3590     1.6520    -1.7640 nv         1 KZP      -1.068900
     53 C02          6.7590    -3.1630     0.9220 c3         1 KZP       0.096600
@<TRIPOS>BOND
     1     1    13 ar  
     2     1    14 ar  
     3     1    32 1   
     4     2     3 1   
     5     2    19 ar  
     6     2    28 ar  
     7     3     7 1   
     8     3    33 1   
     9     4     7 ar  
    10     4    15 ar  
    11     4    34 1   
    12     5    29 ar  
    13     5    30 ar  
    14     5    35 1   
    15     6    24 ar  
    16     6    30 ar  
    17     6    52 1   
    18     7    18 ar  
    19     8    36 1   
    20     8    37 1   
    21     8    38 1   
    22     8    53 1   
    23     9    10 1   
    24     9    24 1   
    25     9    27 2   
    26    10    11 3   
    27    11    12 1   
    28    12    13 ar  
    29    12    22 ar  
    30    13    19 ar  
    31    14    28 ar  
    32    14    41 1   
    33    15    16 ar  
    34    15    42 1   
    35    16    17 ar  
    36    16    31 1   
    37    17    18 ar  
    38    17    43 1   
    39    18    44 1   
    40    19    20 ar  
    41    20    21 ar  
    42    20    45 1   
    43    21    22 ar  
    44    21    46 1   
    45    22    23 1   
    46    23    47 1   
    47    23    48 1   
    48    23    49 1   
    49    24    25 ar  
    50    25    26 1   
    51    25    29 ar  
    52    26    27 1   
    53    26    53 1   
    54    39    53 1   
    55    40    53 1   
    56    50    52 1   
    57    51    52 1   
@<TRIPOS>SUBSTRUCTURE
     1 KZP         1 TEMP              0 ****  ****    0 ROOT
