@<TRIPOS>MOLECULE
KZP
   53    57     1     0     0
SMALL
abcg2


@<TRIPOS>ATOM
      1 C10         -0.5400    -0.9180    -0.1570 ca         1 KZP      -0.195000
      2 C13         -3.0140     0.2680     0.0190 ca         1 KZP       0.640900
      3 N14         -4.2430     0.8470     0.1550 nu         1 KZP      -0.941900
      4 C16         -6.5650     1.0070     0.6290 ca         1 KZP      -0.143000
      5 C30          8.1140     0.3880    -0.3460 ca         1 KZP       0.196900
      6 C32          6.0530     1.3980    -0.2480 ca         1 KZP       0.460900
      7 C15         -5.5110     0.2810     0.0640 ca         1 KZP       0.315000
      8 C01          6.4490    -3.8670     1.3390 c3         1 KZP      -0.114100
      9 C05          4.2080    -0.5050    -0.0930 cc         1 KZP       0.443800
     10 C06          2.9410     0.1160    -0.0340 cg         1 KZP      -0.115200
     11 C07          1.8620     0.6590     0.0050 ch         1 KZP      -0.087000
     12 C08          0.5920     1.2880     0.0540 ca         1 KZP       0.021000
     13 C09         -0.5850     0.4880    -0.0090 ca         1 KZP       0.045000
     14 C11         -1.7170    -1.5990    -0.2280 ca         1 KZP       0.381900
     15 C17         -7.8700     0.5570     0.5530 ca         1 KZP      -0.075000
     16 C18         -8.1390    -0.6400    -0.0920 ca         1 KZP       0.089000
     17 C20         -7.1120    -1.3730    -0.6610 ca         1 KZP      -0.075000
     18 C21         -5.8030    -0.9190    -0.5880 ca         1 KZP      -0.143000
     19 C22         -1.8480     1.1170     0.0610 ca         1 KZP      -0.129000
     20 C23         -1.9050     2.5210     0.1500 ca         1 KZP      -0.069000
     21 C24         -0.7570     3.2680     0.1990 ca         1 KZP      -0.124000
     22 C25          0.5120     2.6690     0.1630 ca         1 KZP      -0.028300
     23 C26          1.7430     3.5150     0.2310 c3         1 KZP      -0.054800
     24 C27          5.4840     0.1070    -0.1860 ca         1 KZP      -0.375900
     25 C28          6.3800    -0.9580    -0.2210 ca         1 KZP       0.154500
     26 N03          5.6420    -2.0860    -0.1620 na         1 KZP      -0.012100
     27 N04          4.3380    -1.8190    -0.0740 nd         1 KZP      -0.499100
     28 N12         -2.9330    -1.0280    -0.1350 nb         1 KZP      -0.749000
     29 N29          7.7100    -0.8650    -0.2990 nb         1 KZP      -0.227000
     30 N31          7.3810     1.5020    -0.3260 nb         1 KZP      -0.309000
     31 CL1         -9.7710    -1.2210    -0.1860 cl         1 KZP      -0.206000
     32 H1           0.4010    -1.4440    -0.2250 ha         1 KZP       0.141000
     33 H2          -4.2500     1.7960     0.4880 hn         1 KZP       0.495000
     34 H3          -6.3620     1.9420     1.1400 ha         1 KZP       0.130500
     35 H4           9.1860     0.5420    -0.4090 h5         1 KZP       0.047100
     36 H5           7.2360    -3.2450     1.7640 hc         1 KZP       0.050033
     37 H6           5.5680    -3.7960     1.9760 hc         1 KZP       0.050033
     38 H7           6.7940    -4.9000     1.3490 hc         1 KZP       0.050033
     39 H8           7.0160    -3.5150    -0.7160 h1         1 KZP       0.071200
     40 H9           5.3660    -4.0870    -0.5240 h1         1 KZP       0.071200
     41 H10         -1.7170    -2.6750    -0.3570 h4         1 KZP       0.021100
     42 H11         -8.6650     1.1370     1.0000 ha         1 KZP       0.128500
     43 H12         -7.3200    -2.3040    -1.1710 ha         1 KZP       0.128500
     44 H13         -5.0200    -1.5060    -1.0370 ha         1 KZP       0.130500
     45 H14         -2.8480     3.0500     0.1660 ha         1 KZP       0.110000
     46 H15         -0.8280     4.3460     0.2640 ha         1 KZP       0.118000
     47 H16          2.3460     3.4080    -0.6740 hc         1 KZP       0.047367
     48 H17          1.4920     4.5690     0.3320 hc         1 KZP       0.047367
     49 H18          2.3660     3.2390     1.0840 hc         1 KZP       0.047367
     50 H19          4.3190     2.4810    -0.2340 hn         1 KZP       0.503500
     51 H20          5.7680     3.4090    -0.3170 hn         1 KZP       0.503500
     52 N33          5.3230     2.5110    -0.2210 nv         1 KZP      -1.068900
     53 C02          6.1310    -3.4480    -0.0860 c3         1 KZP       0.096600
@<TRIPOS>BOND
     1     1    13 ar  
     2     1    14 ar  
     3     1    32 1   
     4     2     3 1   
     5     2    19 ar  
     6     2    28 ar  
     7     3     7 1   
     8     3    33 1   
     9     4     7 ar  
    10     4    15 ar  
    11     4    34 1   
    12     5    29 ar  
    13     5    30 ar  
    14     5    35 1   
    15     6    24 ar  
    16     6    30 ar  
    17     6    52 1   
    18     7    18 ar  
    19     8    36 1   
    20     8    37 1   
    21     8    38 1   
    22     8    53 1   
    23     9    10 1   
    24     9    24 1   
    25     9    27 2   
    26    10    11 3   
    27    11    12 1   
    28    12    13 ar  
    29    12    22 ar  
    30    13    19 ar  
    31    14    28 ar  
    32    14    41 1   
    33    15    16 ar  
    34    15    42 1   
    35    16    17 ar  
    36    16    31 1   
    37    17    18 ar  
    38    17    43 1   
    39    18    44 1   
    40    19    20 ar  
    41    20    21 ar  
    42    20    45 1   
    43    21    22 ar  
    44    21    46 1   
    45    22    23 1   
    46    23    47 1   
    47    23    48 1   
    48    23    49 1   
    49    24    25 ar  
    50    25    26 1   
    51    25    29 ar  
    52    26    27 1   
    53    26    53 1   
    54    39    53 1   
    55    40    53 1   
    56    50    52 1   
    57    51    52 1   
@<TRIPOS>SUBSTRUCTURE
     1 KZP         1 TEMP              0 ****  ****    0 ROOT
