@<TRIPOS>MOLECULE
KZQ
   43    46     1     0     0
SMALL
abcg2


@<TRIPOS>ATOM
      1 CAA         -5.2820    -0.4990     1.0360 cc         1 KZQ      -0.202100
      2 NAB         -6.3510     0.1130     0.5190 na         1 KZQ       0.015500
      3 NAC         -6.0930     1.1850    -0.2140 nc         1 KZQ      -0.278400
      4 CAD         -4.7620     1.2830    -0.1770 ca         1 KZQ      -0.075000
      5 CAE         -4.1870     0.2420     0.6030 ca         1 KZQ      -0.132000
      6 CAF         -3.9310     2.2540    -0.7830 ca         1 KZQ      -0.067000
      7 CAG         -2.5840     2.1530    -0.6020 ca         1 KZQ      -0.092000
      8 CAH         -2.0060     1.0960     0.1660 ca         1 KZQ      -0.052000
      9 CAI         -2.7880     0.1460     0.7640 ca         1 KZQ      -0.092000
     10 NAJ         -0.6090     1.0650     0.3530 ns         1 KZQ      -0.160000
     11 CAK          0.2940     1.1050    -0.6580 c          1 KZQ       0.633300
     12 OAL         -0.0360     1.1140    -1.8340 o          1 KZQ      -0.581100
     13 CAM          1.7180     1.0780    -0.2550 ce         1 KZQ      -0.297400
     14 CAN          2.2610     1.8160     0.7270 c2         1 KZQ       0.111400
     15 NAO          3.6150     1.7120     0.9870 ns         1 KZQ      -0.430100
     16 CAP          4.5180     1.0800     0.1650 c          1 KZQ       0.614000
     17 NAQ          3.9710     0.4160    -0.8720 ns         1 KZQ      -0.504900
     18 CAR          2.5650     0.1240    -1.0590 c6         1 KZQ       0.242200
     19 CAS          1.5610     2.8030     1.6070 c3         1 KZQ      -0.080900
     20 OAT          5.7200     1.1530     0.3660 o          1 KZQ      -0.580000
     21 CAU          2.2170    -1.3070    -0.6920 ca         1 KZQ      -0.143300
     22 CAV          2.5500    -1.8210     0.5590 ca         1 KZQ      -0.065000
     23 CAW          2.2040    -3.1140     0.9130 ca         1 KZQ      -0.155500
     24 CAX          1.5120    -3.8880    -0.0020 ca         1 KZQ       0.176000
     25 CAY          1.1640    -3.4130    -1.2490 ca         1 KZQ      -0.155500
     26 CAZ          1.5260    -2.1140    -1.5860 ca         1 KZQ      -0.065000
     27 FBA          1.1700    -5.1420     0.3380 f          1 KZQ      -0.179000
     28 HAA         -5.3670    -1.3820     1.6470 h4         1 KZQ       0.228000
     29 HAF         -4.3550     3.0640    -1.3620 ha         1 KZQ       0.130000
     30 HAG         -1.9340     2.9020    -1.0330 ha         1 KZQ       0.126000
     31 HAI         -2.3450    -0.6550     1.3430 ha         1 KZQ       0.117000
     32 HNAJ        -0.2740     0.8140     1.2700 hn         1 KZQ       0.153000
     33 HNAO         4.0130     2.2900     1.7110 hn         1 KZQ       0.337500
     34 HNAQ         4.6200    -0.0770    -1.4650 hn         1 KZQ       0.336500
     35 HAR          2.3390     0.2620    -2.1190 h1         1 KZQ       0.089700
     36 HAS          1.4290     2.3960     2.6110 hc         1 KZQ       0.063700
     37 HASA         2.1590     3.7100     1.7000 hc         1 KZQ       0.063700
     38 HASB         0.5860     3.0830     1.2220 hc         1 KZQ       0.063700
     39 HAV          3.0830    -1.2130     1.2790 ha         1 KZQ       0.124000
     40 HAW          2.4660    -3.5140     1.8840 ha         1 KZQ       0.134000
     41 HAY          0.6230    -4.0390    -1.9470 ha         1 KZQ       0.134000
     42 HAZ          1.2600    -1.7300    -2.5630 ha         1 KZQ       0.124000
     43 HNAB        -7.3100    -0.1760     0.6430 hn         1 KZQ       0.371000
@<TRIPOS>BOND
     1     1     2 1   
     2     1     5 2   
     3     1    28 1   
     4     2     3 1   
     5     2    43 1   
     6     3     4 2   
     7     4     5 ar  
     8     4     6 ar  
     9     5     9 ar  
    10     6     7 ar  
    11     6    29 1   
    12     7     8 ar  
    13     7    30 1   
    14     8     9 ar  
    15     8    10 1   
    16     9    31 1   
    17    10    11 1   
    18    10    32 1   
    19    11    12 2   
    20    11    13 1   
    21    13    14 2   
    22    13    18 1   
    23    14    15 1   
    24    14    19 1   
    25    15    16 1   
    26    15    33 1   
    27    16    17 1   
    28    16    20 2   
    29    17    18 1   
    30    17    34 1   
    31    18    21 1   
    32    18    35 1   
    33    19    36 1   
    34    19    37 1   
    35    19    38 1   
    36    21    22 ar  
    37    21    26 ar  
    38    22    23 ar  
    39    22    39 1   
    40    23    24 ar  
    41    23    40 1   
    42    24    25 ar  
    43    24    27 1   
    44    25    26 ar  
    45    25    41 1   
    46    26    42 1   
@<TRIPOS>SUBSTRUCTURE
     1 KZQ         1 TEMP              0 ****  ****    0 ROOT
