@<TRIPOS>MOLECULE
KZQ
   43    46     1     0     0
SMALL
No Charge or Current Charge


@<TRIPOS>ATOM
      1 CAA         -5.5050     2.0680     1.8340 cc         1 KZQ      -0.202100
      2 NAB         -6.7110     1.7520     1.2130 na         1 KZQ       0.015500
      3 NAC         -6.5230     1.0510     0.0130 nc         1 KZQ      -0.278400
      4 CAD         -5.1320     0.9560    -0.0630 ca         1 KZQ      -0.075000
      5 CAE         -4.4870     1.5450     0.9930 ca         1 KZQ      -0.132000
      6 CAF         -4.3840     0.3390    -1.0760 ca         1 KZQ      -0.067000
      7 CAG         -2.9740     0.3400    -0.9850 ca         1 KZQ      -0.092000
      8 CAH         -2.3160     0.9600     0.1140 ca         1 KZQ      -0.052000
      9 CAI         -3.0940     1.5680     1.1230 ca         1 KZQ      -0.092000
     10 NAJ         -0.9020     0.9930     0.2720 ns         1 KZQ      -0.160000
     11 CAK          0.1480     0.6440    -0.5680 c          1 KZQ       0.633300
     12 OAL         -0.0370     0.2470    -1.7120 o          1 KZQ      -0.581100
     13 CAM          1.5470     0.7950    -0.0110 ce         1 KZQ      -0.297400
     14 CAN          1.8970     1.2960     1.2050 c2         1 KZQ       0.111400
     15 NAO          3.2490     1.4160     1.5350 ns         1 KZQ      -0.430100
     16 CAP          4.3050     1.1970     0.7020 c          1 KZQ       0.614000
     17 NAQ          3.9780     0.7280    -0.5350 ns         1 KZQ      -0.504900
     18 CAR          2.6460     0.3070    -0.9700 c6         1 KZQ       0.242200
     19 CAS          1.0180     1.8190     2.3310 c3         1 KZQ      -0.080900
     20 OAT          5.4560     1.4110     1.0330 o          1 KZQ      -0.580000
     21 CAU          2.6570    -1.2200    -1.0920 ca         1 KZQ      -0.143300
     22 CAV          2.7450    -2.0290     0.0610 ca         1 KZQ      -0.065000
     23 CAW          2.7520    -3.4300    -0.0560 ca         1 KZQ      -0.155500
     24 CAX          2.6710    -4.0260    -1.3230 ca         1 KZQ       0.176000
     25 CAY          2.5840    -3.2310    -2.4760 ca         1 KZQ      -0.155500
     26 CAZ          2.5770    -1.8290    -2.3620 ca         1 KZQ      -0.065000
     27 FBA          2.6780    -5.3720    -1.4350 f          1 KZQ      -0.179000
     28 HAA         -5.4780     2.6110     2.7730 h4         1 KZQ       0.228000
     29 HAF         -4.8810    -0.1370    -1.9180 ha         1 KZQ       0.130000
     30 HAG         -2.4150    -0.1540    -1.7720 ha         1 KZQ       0.126000
     31 HAI         -2.6280     2.0480     1.9810 ha         1 KZQ       0.117000
     32 HNAJ        -0.6090     1.3290     1.1760 hn         1 KZQ       0.153000
     33 HNAO         3.4950     1.7630     2.4520 hn         1 KZQ       0.337500
     34 HNAQ         4.7560     0.5630    -1.1600 hn         1 KZQ       0.336500
     35 HAR          2.4760     0.7500    -1.9640 h1         1 KZQ       0.089700
     36 HAS          0.3530     1.0340     2.7110 hc         1 KZQ       0.063700
     37 HASA         1.6020     2.1750     3.1890 hc         1 KZQ       0.063700
     38 HASB         0.4070     2.6650     1.9970 hc         1 KZQ       0.063700
     39 HAV          2.8090    -1.5740     1.0470 ha         1 KZQ       0.124000
     40 HAW          2.8190    -4.0530     0.8320 ha         1 KZQ       0.134000
     41 HAY          2.5220    -3.7000    -3.4540 ha         1 KZQ       0.134000
     42 HAZ          2.5060    -1.2190    -3.2600 ha         1 KZQ       0.124000
     43 HNAB        -7.6460     1.9790     1.5450 hn         1 KZQ       0.371000
@<TRIPOS>BOND
     1     1     2 1   
     2     1     5 2   
     3     1    28 1   
     4     2     3 1   
     5     2    43 1   
     6     3     4 2   
     7     4     5 ar  
     8     4     6 ar  
     9     5     9 ar  
    10     6     7 ar  
    11     6    29 1   
    12     7     8 ar  
    13     7    30 1   
    14     8     9 ar  
    15     8    10 1   
    16     9    31 1   
    17    10    11 1   
    18    10    32 1   
    19    11    12 2   
    20    11    13 1   
    21    13    14 2   
    22    13    18 1   
    23    14    15 1   
    24    14    19 1   
    25    15    16 1   
    26    15    33 1   
    27    16    17 1   
    28    16    20 2   
    29    17    18 1   
    30    17    34 1   
    31    18    21 1   
    32    18    35 1   
    33    19    36 1   
    34    19    37 1   
    35    19    38 1   
    36    21    22 ar  
    37    21    26 ar  
    38    22    23 ar  
    39    22    39 1   
    40    23    24 ar  
    41    23    40 1   
    42    24    25 ar  
    43    24    27 1   
    44    25    26 ar  
    45    25    41 1   
    46    26    42 1   
@<TRIPOS>SUBSTRUCTURE
     1 KZQ         1 TEMP              0 ****  ****    0 ROOT
