@<TRIPOS>MOLECULE
KZS
   64    65     1     0     0
SMALL
No Charge or Current Charge


@<TRIPOS>ATOM
      1 CAA          5.7980     3.1570     1.2310 c3         1 KZS      -0.090100
      2 CAB          4.6190     3.2670     0.2530 c3         1 KZS       0.162100
      3 OAC          3.9000     2.0280     0.3000 os         1 KZS      -0.441000
      4 CAD          2.7630     1.9610    -0.5790 c3         1 KZS       0.173600
      5 CAE          2.0450     0.5660    -0.4940 c6         1 KZS      -0.039000
      6 CAF          2.9680    -0.5110    -1.1800 c3         1 KZS       0.173600
      7 OAG          4.1520    -0.7630    -0.4040 os         1 KZS      -0.441000
      8 CAH          5.0510    -1.7200    -0.9810 c3         1 KZS       0.162100
      9 CAI          6.2540    -1.8550    -0.0350 c3         1 KZS      -0.090100
     10 CAN          1.7100     0.2020     0.9930 c6         1 KZS      -0.065400
     11 CAM          0.8350    -1.0730     1.1180 c6         1 KZS      -0.071400
     12 CAJ          0.6980     0.6810    -1.2860 c6         1 KZS      -0.065400
     13 CAK         -0.2070    -0.5760    -1.1610 c6         1 KZS      -0.071400
     14 CAL         -0.4880    -0.9200     0.3240 c6         1 KZS      -0.002400
     15 CAO         -1.3300    -2.1750     0.4220 cc         1 KZS      -0.108300
     16 NAP         -0.9510    -3.4840     0.1280 na         1 KZS      -0.003200
     17 NAQ         -1.9650    -4.4090     0.3180 nc         1 KZS      -0.525800
     18 CAR         -2.9690    -3.6540     0.7250 cd         1 KZS       0.245900
     19 CAS         -2.6410    -2.2830     0.8060 cd         1 KZS      -0.213300
     20 CAT         -3.5850    -1.1890     1.2360 c3         1 KZS       0.257100
     21 NAU         -3.8370    -0.1790     0.1800 n3         1 KZS      -0.729600
     22 CAV         -4.4590    -0.7630    -1.0340 c3         1 KZS       0.151100
     23 CAW         -4.5640     1.0090     0.7080 c3         1 KZS       0.165800
     24 CAX         -4.6490     2.2280    -0.2580 c3         1 KZS       0.153800
     25 NAY         -5.2730     3.4060     0.3940 n7         1 KZS      -0.861400
     26 CAZ         -5.4090     4.5960    -0.4670 c3         1 KZS       0.146100
     27 H1           5.4380     2.9820     2.2520 hc         1 KZS       0.042367
     28 H2           6.4610     2.3320     0.9460 hc         1 KZS       0.042367
     29 H3           6.3820     4.0850     1.2270 hc         1 KZS       0.042367
     30 H4           3.9720     4.1040     0.5480 h1         1 KZS       0.014450
     31 H5           4.9990     3.4580    -0.7600 h1         1 KZS       0.014450
     32 H6           2.0430     2.7430    -0.3030 h1         1 KZS       0.015700
     33 H7           3.0680     2.1440    -1.6180 h1         1 KZS       0.015700
     34 H8           2.4120    -1.4490    -1.3020 h1         1 KZS       0.015700
     35 H9           3.2370    -0.1590    -2.1850 h1         1 KZS       0.015700
     36 H10          4.5610    -2.6960    -1.0940 h1         1 KZS       0.014450
     37 H11          5.3960    -1.3850    -1.9670 h1         1 KZS       0.014450
     38 H12          6.9740    -2.5770    -0.4370 hc         1 KZS       0.042367
     39 H13          6.7630    -0.8900     0.0830 hc         1 KZS       0.042367
     40 H14          5.9320    -2.2040     0.9530 hc         1 KZS       0.042367
     41 H15          2.6320     0.0650     1.5750 hc         1 KZS       0.048700
     42 H16          1.1830     1.0430     1.4650 hc         1 KZS       0.048700
     43 H17          1.3980    -1.9480     0.7660 hc         1 KZS       0.046700
     44 H18          0.6090    -1.2590     2.1770 hc         1 KZS       0.046700
     45 H19          0.1310     1.5500    -0.9240 hc         1 KZS       0.048700
     46 H20          0.9010     0.8780    -2.3480 hc         1 KZS       0.048700
     47 H21         -1.1580    -0.3910    -1.6780 hc         1 KZS       0.046700
     48 H22          0.2510    -1.4320    -1.6730 hc         1 KZS       0.046700
     49 H23         -1.0410    -0.0770     0.7620 hc         1 KZS       0.073700
     50 H24         -0.0310    -3.7760    -0.1950 hn         1 KZS       0.369000
     51 H25         -3.9200    -4.1200     0.9520 h4         1 KZS       0.033100
     52 H26         -4.5330    -1.6430     1.5560 h1         1 KZS       0.035700
     53 H27         -3.1480    -0.7040     2.1190 h1         1 KZS       0.035700
     54 H29         -5.4700    -1.1330    -0.8160 h1         1 KZS       0.031367
     55 H30         -4.5290    -0.0220    -1.8410 h1         1 KZS       0.031367
     56 H31         -3.8630    -1.6010    -1.4200 h1         1 KZS       0.031367
     57 H32         -5.5850     0.7210     0.9940 h1         1 KZS       0.035700
     58 H33         -4.0630     1.3540     1.6230 h1         1 KZS       0.035700
     59 H34         -3.6330     2.4770    -0.5940 h1         1 KZS       0.035200
     60 H35         -5.2320     1.9430    -1.1440 h1         1 KZS       0.035200
     61 H36         -4.6970     3.6640     1.2060 hn         1 KZS       0.404000
     62 H38         -4.4270     4.9420    -0.8160 h1         1 KZS       0.029033
     63 H39         -6.0270     4.3740    -1.3480 h1         1 KZS       0.029033
     64 H40         -5.8850     5.4190     0.0830 h1         1 KZS       0.029033
@<TRIPOS>BOND
     1     1     2 1   
     2     1    27 1   
     3     1    28 1   
     4     1    29 1   
     5     2     3 1   
     6     2    30 1   
     7     2    31 1   
     8     3     4 1   
     9     4     5 1   
    10     4    32 1   
    11     4    33 1   
    12     5     6 1   
    13     5    10 1   
    14     5    12 1   
    15     6     7 1   
    16     6    34 1   
    17     6    35 1   
    18     7     8 1   
    19     8     9 1   
    20     8    36 1   
    21     8    37 1   
    22     9    38 1   
    23     9    39 1   
    24     9    40 1   
    25    10    11 1   
    26    10    41 1   
    27    10    42 1   
    28    11    14 1   
    29    11    43 1   
    30    11    44 1   
    31    12    13 1   
    32    12    45 1   
    33    12    46 1   
    34    13    14 1   
    35    13    47 1   
    36    13    48 1   
    37    14    15 1   
    38    14    49 1   
    39    15    16 1   
    40    15    19 2   
    41    16    17 1   
    42    16    50 1   
    43    17    18 2   
    44    18    19 1   
    45    18    51 1   
    46    19    20 1   
    47    20    21 1   
    48    20    52 1   
    49    20    53 1   
    50    21    22 1   
    51    21    23 1   
    52    22    54 1   
    53    22    55 1   
    54    22    56 1   
    55    23    24 1   
    56    23    57 1   
    57    23    58 1   
    58    24    25 1   
    59    24    59 1   
    60    24    60 1   
    61    25    26 1   
    62    25    61 1   
    63    26    62 1   
    64    26    63 1   
    65    26    64 1   
@<TRIPOS>SUBSTRUCTURE
     1 KZS         1 TEMP              0 ****  ****    0 ROOT
