@<TRIPOS>MOLECULE
KZS
   64    65     1     0     0
SMALL
bcc


@<TRIPOS>ATOM
      1 CAA          5.6450     3.2330     1.2310 c3         1 KZS      -0.090100
      2 CAB          4.3170     3.3190     0.5110 c3         1 KZS       0.138900
      3 OAC          3.7630     2.0310     0.4130 os         1 KZS      -0.394600
      4 CAD          2.5190     2.0190    -0.2300 c3         1 KZS       0.150400
      5 CAE          1.9180     0.6140    -0.2730 c6         1 KZS      -0.039000
      6 CAF          2.7580    -0.3140    -1.1520 c3         1 KZS       0.150400
      7 OAG          3.9570    -0.6780    -0.5250 os         1 KZS      -0.394600
      8 CAH          4.7510    -1.5260    -1.3170 c3         1 KZS       0.138900
      9 CAI          6.0100    -1.8800    -0.5580 c3         1 KZS      -0.090100
     10 CAN          1.7540     0.0640     1.1490 c6         1 KZS      -0.065400
     11 CAM          0.9300    -1.2180     1.2040 c6         1 KZS      -0.071400
     12 CAJ          0.5300     0.7560    -0.9260 c6         1 KZS      -0.065400
     13 CAK         -0.3400    -0.4950    -0.8430 c6         1 KZS      -0.071400
     14 CAL         -0.4570    -0.9980     0.5990 c6         1 KZS      -0.002400
     15 CAO         -1.3370    -2.2000     0.6860 cc         1 KZS      -0.057600
     16 NAP         -0.9190    -3.4610     0.4640 na         1 KZS      -0.003600
     17 NAQ         -1.8840    -4.3720     0.5700 nc         1 KZS      -0.525800
     18 CAR         -2.9650    -3.6730     0.8660 cd         1 KZS       0.311200
     19 CAS         -2.6900    -2.2970     0.9550 cd         1 KZS      -0.278600
     20 CAT         -3.6190    -1.1670     1.2490 c3         1 KZS       0.257100
     21 NAU         -3.7340    -0.2430     0.1310 n3         1 KZS      -0.729600
     22 CAV         -4.3810    -0.8700    -1.0000 c3         1 KZS       0.151100
     23 CAW         -4.3750     0.9960     0.5250 c3         1 KZS       0.165800
     24 CAX         -4.2090     2.1040    -0.5060 c3         1 KZS       0.153800
     25 NAY         -4.7630     3.3440     0.0000 n7         1 KZS      -0.806200
     26 CAZ         -4.7080     4.4190    -0.9690 c3         1 KZS       0.146100
     27 H1           5.5240     2.8350     2.2390 hc         1 KZS       0.042367
     28 H2           6.3480     2.5960     0.6930 hc         1 KZS       0.042367
     29 H3           6.0880     4.2260     1.3150 hc         1 KZS       0.042367
     30 H4           3.6390     3.9930     1.0560 h1         1 KZS       0.014450
     31 H5           4.4570     3.7580    -0.4870 h1         1 KZS       0.014450
     32 H6           1.8140     2.6860     0.2920 h1         1 KZS       0.015700
     33 H7           2.6100     2.4040    -1.2600 h1         1 KZS       0.015700
     34 H8           2.1850    -1.2190    -1.4060 h1         1 KZS       0.015700
     35 H9           2.9580     0.1940    -2.1100 h1         1 KZS       0.015700
     36 H10          4.1990    -2.4410    -1.5780 h1         1 KZS       0.014450
     37 H11          5.0080    -1.0360    -2.2670 h1         1 KZS       0.014450
     38 H12          6.6440    -2.5240    -1.1670 hc         1 KZS       0.042367
     39 H13          6.5830    -0.9870    -0.3050 hc         1 KZS       0.042367
     40 H14          5.7810    -2.4120     0.3660 hc         1 KZS       0.042367
     41 H15          2.7270    -0.1030     1.6100 hc         1 KZS       0.048700
     42 H16          1.2510     0.8250     1.7590 hc         1 KZS       0.048700
     43 H17          1.4600    -2.0170     0.6730 hc         1 KZS       0.046700
     44 H18          0.8370    -1.5470     2.2420 hc         1 KZS       0.046700
     45 H19         -0.0040     1.5750    -0.4300 hc         1 KZS       0.048700
     46 H20          0.6380     1.0590    -1.9720 hc         1 KZS       0.048700
     47 H21         -1.3390    -0.2610    -1.2150 hc         1 KZS       0.046700
     48 H22          0.0580    -1.2930    -1.4770 hc         1 KZS       0.046700
     49 H23         -0.9550    -0.2100     1.1760 hc         1 KZS       0.073700
     50 H24          0.0160    -3.7600     0.2370 hn         1 KZS       0.318700
     51 H25         -3.9150    -4.1680     1.0100 h4         1 KZS       0.033100
     52 H26         -4.5990    -1.5730     1.5540 h1         1 KZS       0.035700
     53 H27         -3.2430    -0.6030     2.1080 h1         1 KZS       0.035700
     54 H29         -5.4230    -1.1650    -0.7900 h1         1 KZS       0.031367
     55 H30         -4.3900    -0.2050    -1.8630 h1         1 KZS       0.031367
     56 H31         -3.8350    -1.7670    -1.2920 h1         1 KZS       0.031367
     57 H32         -5.4490     0.8630     0.7430 h1         1 KZS       0.035700
     58 H33         -3.9070     1.3300     1.4570 h1         1 KZS       0.035700
     59 H34         -3.1430     2.1810    -0.7750 h1         1 KZS       0.035200
     60 H35         -4.7440     1.8540    -1.4270 h1         1 KZS       0.035200
     61 H36         -4.2460     3.6220     0.8260 hn         1 KZS       0.348800
     62 H38         -3.7000     4.6370    -1.3470 h1         1 KZS       0.029033
     63 H39         -5.3310     4.1710    -1.8300 h1         1 KZS       0.029033
     64 H40         -5.1040     5.3350    -0.5300 h1         1 KZS       0.029033
@<TRIPOS>BOND
     1     1     2 1   
     2     1    27 1   
     3     1    28 1   
     4     1    29 1   
     5     2     3 1   
     6     2    30 1   
     7     2    31 1   
     8     3     4 1   
     9     4     5 1   
    10     4    32 1   
    11     4    33 1   
    12     5     6 1   
    13     5    10 1   
    14     5    12 1   
    15     6     7 1   
    16     6    34 1   
    17     6    35 1   
    18     7     8 1   
    19     8     9 1   
    20     8    36 1   
    21     8    37 1   
    22     9    38 1   
    23     9    39 1   
    24     9    40 1   
    25    10    11 1   
    26    10    41 1   
    27    10    42 1   
    28    11    14 1   
    29    11    43 1   
    30    11    44 1   
    31    12    13 1   
    32    12    45 1   
    33    12    46 1   
    34    13    14 1   
    35    13    47 1   
    36    13    48 1   
    37    14    15 1   
    38    14    49 1   
    39    15    16 1   
    40    15    19 2   
    41    16    17 1   
    42    16    50 1   
    43    17    18 2   
    44    18    19 1   
    45    18    51 1   
    46    19    20 1   
    47    20    21 1   
    48    20    52 1   
    49    20    53 1   
    50    21    22 1   
    51    21    23 1   
    52    22    54 1   
    53    22    55 1   
    54    22    56 1   
    55    23    24 1   
    56    23    57 1   
    57    23    58 1   
    58    24    25 1   
    59    24    59 1   
    60    24    60 1   
    61    25    26 1   
    62    25    61 1   
    63    26    62 1   
    64    26    63 1   
    65    26    64 1   
@<TRIPOS>SUBSTRUCTURE
     1 KZS         1 TEMP              0 ****  ****    0 ROOT
