@<TRIPOS>MOLECULE
KZT
   59    62     1     0     0
SMALL
bcc


@<TRIPOS>ATOM
      1 O3          -1.9670    -1.4720     1.6710 o          1 KZT      -0.614300
      2 C4          -0.8690     5.5760    -0.6710 c3         1 KZT       0.124700
      3 C5          -0.2030     2.0310    -0.2100 ca         1 KZT      -0.002400
      4 C6           2.1550     1.5160     0.1180 c          1 KZT       0.667100
      5 N1           6.4620    -1.0760     0.9360 nb         1 KZT      -0.656000
      6 C7           3.5300     1.7550    -0.4790 c3         1 KZT      -0.121100
      7 C8           4.5380     0.7600     0.0060 ca         1 KZT      -0.016300
      8 N2          -3.3920    -1.2630    -0.3630 n3         1 KZT      -0.799500
      9 C9           5.5530     1.1380     0.8410 ca         1 KZT      -0.237300
     10 C10          6.4920     0.1820     1.2780 ca         1 KZT       0.420200
     11 C11          5.4690    -1.4860     0.1090 ca         1 KZT       0.399600
     12 C12          4.4770    -0.6030    -0.3910 ca         1 KZT      -0.128300
     13 C13          3.4790    -1.1190    -1.2500 ca         1 KZT      -0.112000
     14 C14          3.4680    -2.4440    -1.5930 ca         1 KZT      -0.121000
     15 C15          4.4530    -3.3180    -1.0930 ca         1 KZT      -0.121000
     16 S           -2.9590    -0.5970     1.0620 sy         1 KZT       1.342200
     17 O           -4.1500    -0.2370     1.8190 o          1 KZT      -0.614300
     18 C23         -4.5470    -0.7250    -1.0680 c3         1 KZT       0.237800
     19 C22         -5.9090    -1.2430    -0.5980 c3         1 KZT      -0.097400
     20 C21         -5.9020    -2.6610    -0.0310 c3         1 KZT      -0.069400
     21 C20         -5.0960    -3.6980    -0.8190 c3         1 KZT      -0.069400
     22 C19         -3.6130    -3.7460    -0.4520 c3         1 KZT      -0.097400
     23 C18         -2.8190    -2.5140    -0.8470 c3         1 KZT       0.237800
     24 C           -2.1600     0.9160     0.6160 ca         1 KZT      -0.307500
     25 C17         -0.8380     0.8710     0.1880 ca         1 KZT       0.007000
     26 C3          -0.9050     3.2520    -0.2040 ca         1 KZT       0.166100
     27 O1          -0.2160     4.3190    -0.6150 os         1 KZT      -0.322900
     28 C2          -2.2310     3.2780     0.2160 ca         1 KZT      -0.232000
     29 C1          -2.8550     2.1130     0.6350 ca         1 KZT       0.002000
     30 O2           1.9920     0.9390     1.1740 o          1 KZT      -0.553100
     31 C16          5.4330    -2.8490    -0.2620 ca         1 KZT      -0.161300
     32 H1          -0.1370     6.2830    -1.0520 h1         1 KZT       0.047367
     33 H2          -1.7280     5.5540    -1.3450 h1         1 KZT       0.047367
     34 H3          -1.1980     5.9020     0.3170 h1         1 KZT       0.047367
     35 H4           3.4790     1.7620    -1.5710 hc         1 KZT       0.069200
     36 H5           3.8380     2.7630    -0.1870 hc         1 KZT       0.069200
     37 H6           5.6470     2.1630     1.1740 ha         1 KZT       0.139000
     38 H7           7.2950     0.4920     1.9380 h4         1 KZT       0.019100
     39 H8           2.7160    -0.4660    -1.6540 ha         1 KZT       0.127000
     40 H9           2.6980    -2.8250    -2.2510 ha         1 KZT       0.130000
     41 H10          4.4330    -4.3630    -1.3730 ha         1 KZT       0.134000
     42 H11         -4.5260     0.3680    -1.0360 h1         1 KZT       0.049450
     43 H12         -4.3940    -0.9870    -2.1160 h1         1 KZT       0.049450
     44 H13         -6.3260    -0.5710     0.1540 hc         1 KZT       0.051200
     45 H14         -6.5820    -1.1950    -1.4580 hc         1 KZT       0.051200
     46 H15         -5.5350    -2.6380     0.9990 hc         1 KZT       0.041700
     47 H16         -6.9420    -2.9900     0.0370 hc         1 KZT       0.041700
     48 H17         -5.5150    -4.6880    -0.6210 hc         1 KZT       0.041700
     49 H18         -5.2130    -3.5350    -1.8960 hc         1 KZT       0.041700
     50 H19         -3.5150    -3.9070     0.6260 hc         1 KZT       0.051200
     51 H20         -3.1440    -4.6080    -0.9360 hc         1 KZT       0.051200
     52 H21         -2.7830    -2.4280    -1.9360 h1         1 KZT       0.049450
     53 H22         -1.7870    -2.6050    -0.5130 h1         1 KZT       0.049450
     54 H23         -0.2970    -0.0650     0.1540 ha         1 KZT       0.167000
     55 H24         -2.7900     4.2030     0.2420 ha         1 KZT       0.141000
     56 H25         -3.8810     2.1590     0.9730 ha         1 KZT       0.156000
     57 H26          1.3770     2.5670    -1.4390 hn         1 KZT       0.324500
     58 H27          6.1990    -3.5060     0.1300 ha         1 KZT       0.149000
     59 N            1.1380     2.0200    -0.6260 ns         1 KZT      -0.485100
@<TRIPOS>BOND
     1     1    16 2   
     2     2    27 1   
     3     2    32 1   
     4     2    33 1   
     5     2    34 1   
     6     3    25 ar  
     7     3    26 ar  
     8     3    59 1   
     9     4     6 1   
    10     4    30 2   
    11     4    59 1   
    12     5    10 ar  
    13     5    11 ar  
    14     6     7 1   
    15     6    35 1   
    16     6    36 1   
    17     7     9 ar  
    18     7    12 ar  
    19     8    16 1   
    20     8    18 1   
    21     8    23 1   
    22     9    10 ar  
    23     9    37 1   
    24    10    38 1   
    25    11    12 ar  
    26    11    31 ar  
    27    12    13 ar  
    28    13    14 ar  
    29    13    39 1   
    30    14    15 ar  
    31    14    40 1   
    32    15    31 ar  
    33    15    41 1   
    34    16    17 2   
    35    16    24 1   
    36    18    19 1   
    37    18    42 1   
    38    18    43 1   
    39    19    20 1   
    40    19    44 1   
    41    19    45 1   
    42    20    21 1   
    43    20    46 1   
    44    20    47 1   
    45    21    22 1   
    46    21    48 1   
    47    21    49 1   
    48    22    23 1   
    49    22    50 1   
    50    22    51 1   
    51    23    52 1   
    52    23    53 1   
    53    24    25 ar  
    54    24    29 ar  
    55    25    54 1   
    56    26    27 1   
    57    26    28 ar  
    58    28    29 ar  
    59    28    55 1   
    60    29    56 1   
    61    31    58 1   
    62    57    59 1   
@<TRIPOS>SUBSTRUCTURE
     1 KZT         1 TEMP              0 ****  ****    0 ROOT
