@<TRIPOS>MOLECULE
KZT
   59    62     1     0     0
SMALL
No Charge or Current Charge


@<TRIPOS>ATOM
      1 O3          -3.0910    -0.1630     3.2410 o          1 KZT      -0.543500
      2 C4          -0.4470     4.1720    -2.4290 c3         1 KZT       0.147900
      3 C5          -0.2770     1.6890     0.3650 ca         1 KZT      -0.095000
      4 C6           2.0160     1.0060     1.3280 c          1 KZT       0.600100
      5 N1           5.7920    -1.5740    -0.9510 nb         1 KZT      -0.656000
      6 C7           3.4840     1.4340     1.2080 c3         1 KZT      -0.121100
      7 C8           4.2870     0.4070     0.4040 ca         1 KZT      -0.016300
      8 N2          -3.1040    -1.8060     1.3190 n3         1 KZT      -0.799500
      9 C9           5.0160    -0.5700     1.1030 ca         1 KZT      -0.154000
     10 C10          5.7490    -1.5320     0.3970 ca         1 KZT       0.354900
     11 C11          5.0980    -0.6480    -1.6520 ca         1 KZT       0.269000
     12 C12          4.3280     0.3690    -1.0160 ca         1 KZT      -0.063000
     13 C13          3.6280     1.3080    -1.8140 ca         1 KZT      -0.094000
     14 C14          3.6850     1.2400    -3.2150 ca         1 KZT      -0.103000
     15 C15          4.4400     0.2390    -3.8390 ca         1 KZT      -0.103000
     16 S           -3.5640    -0.2540     1.8550 sy         1 KZT       1.200600
     17 O           -4.9680    -0.0410     1.4920 o          1 KZT      -0.543500
     18 C23         -2.7580    -2.0040    -0.1040 c3         1 KZT       0.237800
     19 C22         -3.8850    -1.8230    -1.1510 c3         1 KZT      -0.097400
     20 C21         -5.2780    -2.4290    -0.8420 c3         1 KZT      -0.069400
     21 C20         -5.2980    -3.6850     0.0560 c3         1 KZT      -0.069400
     22 C19         -5.1300    -3.3720     1.5620 c3         1 KZT      -0.097400
     23 C18         -3.7090    -2.9630     2.0090 c3         1 KZT       0.237800
     24 C           -2.5090     0.8300     0.8790 ca         1 KZT      -0.307500
     25 C17         -1.1230     0.8520     1.1270 ca         1 KZT       0.025000
     26 C3          -0.8370     2.5080    -0.6390 ca         1 KZT       0.166100
     27 O1           0.0170     3.3160    -1.3690 os         1 KZT      -0.346100
     28 C2          -2.2270     2.4830    -0.8790 ca         1 KZT      -0.214000
     29 C1          -3.0620     1.6470    -0.1230 ca         1 KZT       0.020000
     30 O2           1.6800     0.0690     2.0440 o          1 KZT      -0.553100
     31 C16          5.1400    -0.6950    -3.0590 ca         1 KZT      -0.078000
     32 H1           0.3950     4.7170    -2.8730 h1         1 KZT       0.047367
     33 H2          -0.9280     3.5850    -3.2220 h1         1 KZT       0.047367
     34 H3          -1.1660     4.9090    -2.0490 h1         1 KZT       0.047367
     35 H4           3.5610     2.4250     0.7490 hc         1 KZT       0.069200
     36 H5           3.8950     1.5020     2.2220 hc         1 KZT       0.069200
     37 H6           5.0180    -0.5960     2.1890 ha         1 KZT       0.121000
     38 H7           6.3180    -2.2950     0.9260 h4         1 KZT       0.019100
     39 H8           3.0370     2.1030    -1.3720 ha         1 KZT       0.109000
     40 H9           3.1420     1.9660    -3.8160 ha         1 KZT       0.112000
     41 H10          4.4840     0.1850    -4.9240 ha         1 KZT       0.116000
     42 H11         -1.9240    -1.3490    -0.3890 h1         1 KZT       0.049450
     43 H12         -2.3690    -3.0250    -0.2250 h1         1 KZT       0.049450
     44 H13         -4.0140    -0.7540    -1.3540 hc         1 KZT       0.051200
     45 H14         -3.5230    -2.2560    -2.0910 hc         1 KZT       0.051200
     46 H15         -5.9160    -1.6600    -0.3900 hc         1 KZT       0.041700
     47 H16         -5.7560    -2.6770    -1.7980 hc         1 KZT       0.041700
     48 H17         -6.2680    -4.1800    -0.0780 hc         1 KZT       0.041700
     49 H18         -4.5370    -4.4020    -0.2740 hc         1 KZT       0.041700
     50 H19         -5.8460    -2.5960     1.8580 hc         1 KZT       0.051200
     51 H20         -5.4090    -4.2680     2.1300 hc         1 KZT       0.051200
     52 H21         -3.0590    -3.8370     1.8630 h1         1 KZT       0.049450
     53 H22         -3.7300    -2.7840     3.0930 h1         1 KZT       0.049450
     54 H23         -0.7250     0.2140     1.9110 ha         1 KZT       0.149000
     55 H24         -2.6790     3.1040    -1.6470 ha         1 KZT       0.123000
     56 H25         -4.1330     1.6400    -0.3210 ha         1 KZT       0.138000
     57 H26          1.5770     2.4860     0.0190 hn         1 KZT       0.158000
     58 H27          5.7250    -1.4680    -3.5490 ha         1 KZT       0.131000
     59 N            1.1340     1.7540     0.5600 ns         1 KZT      -0.159000
@<TRIPOS>BOND
     1     1    16 2   
     2     2    27 1   
     3     2    32 1   
     4     2    33 1   
     5     2    34 1   
     6     3    25 ar  
     7     3    26 ar  
     8     3    59 1   
     9     4     6 1   
    10     4    30 2   
    11     4    59 1   
    12     5    10 ar  
    13     5    11 ar  
    14     6     7 1   
    15     6    35 1   
    16     6    36 1   
    17     7     9 ar  
    18     7    12 ar  
    19     8    16 1   
    20     8    18 1   
    21     8    23 1   
    22     9    10 ar  
    23     9    37 1   
    24    10    38 1   
    25    11    12 ar  
    26    11    31 ar  
    27    12    13 ar  
    28    13    14 ar  
    29    13    39 1   
    30    14    15 ar  
    31    14    40 1   
    32    15    31 ar  
    33    15    41 1   
    34    16    17 2   
    35    16    24 1   
    36    18    19 1   
    37    18    42 1   
    38    18    43 1   
    39    19    20 1   
    40    19    44 1   
    41    19    45 1   
    42    20    21 1   
    43    20    46 1   
    44    20    47 1   
    45    21    22 1   
    46    21    48 1   
    47    21    49 1   
    48    22    23 1   
    49    22    50 1   
    50    22    51 1   
    51    23    52 1   
    52    23    53 1   
    53    24    25 ar  
    54    24    29 ar  
    55    25    54 1   
    56    26    27 1   
    57    26    28 ar  
    58    28    29 ar  
    59    28    55 1   
    60    29    56 1   
    61    31    58 1   
    62    57    59 1   
@<TRIPOS>SUBSTRUCTURE
     1 KZT         1 TEMP              0 ****  ****    0 ROOT
