@<TRIPOS>MOLECULE
KZU
   63    66     1     0     0
SMALL
abcg2


@<TRIPOS>ATOM
      1 C25          2.6050    13.8480    10.7780 c3         1 KZU       0.152300
      2 C23          2.1910    15.9760     9.8350 ca         1 KZU       0.118100
      3 C22          3.4070    16.2640     9.2280 ca         1 KZU      -0.155000
      4 C21          3.4300    17.0940     8.1150 ca         1 KZU      -0.100000
      5 C19          1.0400    17.3560     8.2220 ca         1 KZU      -0.071300
      6 C32         -0.2630    15.1520     5.1110 c3         1 KZU       0.143900
      7 C35          1.0140    16.5160     9.3280 ca         1 KZU      -0.106000
      8 C17         -0.3060    19.4350     8.0030 cc         1 KZU      -0.272300
      9 C16         -0.3270    20.4800     7.1410 cd         1 KZU       0.294900
     10 C5           1.4630    25.6160    10.1370 ca         1 KZU       0.240300
     11 C7           0.7220    25.9750     8.0260 ca         1 KZU       0.156300
     12 C3          -0.3330    24.1530    11.7400 c3         1 KZU      -0.057400
     13 C2          -0.3620    22.7680    11.1330 c          1 KZU       0.608100
     14 C18         -0.2330    17.9760     7.6990 c3         1 KZU       0.052200
     15 C14         -0.3670    21.6460     8.9890 cc         1 KZU       0.543300
     16 C10          2.7450    26.9390     8.8300 ca         1 KZU       0.156300
     17 C11          3.9740    27.7690     8.6730 c3         1 KZU      -0.157900
     18 C20          2.2590    17.6390     7.6130 ca         1 KZU      -0.118000
     19 C26          1.9380    13.1520     9.6480 cc         1 KZU       0.151300
     20 C27          2.3780    12.9710     8.3620 cd         1 KZU      -0.194000
     21 C30          1.0770    13.2750     5.4660 c3         1 KZU       0.139600
     22 C8          -0.3060    25.7000     6.9810 c3         1 KZU      -0.157900
     23 C9           1.8290    26.7740     7.7960 ca         1 KZU      -0.227000
     24 N12          2.5520    26.3530    10.0100 nb         1 KZU      -0.209000
     25 N13         -0.3980    22.7660     9.7780 ns         1 KZU      -0.473400
     26 N15         -0.3630    21.7280     7.6980 nd         1 KZU      -0.716000
     27 N28          1.3450    12.3850     7.7390 na         1 KZU       0.129800
     28 N33          0.3270    12.2190     8.5690 nd         1 KZU      -0.185800
     29 N34          0.6750    12.6740     9.7200 nc         1 KZU      -0.339000
     30 N6           0.5450    25.3920     9.2160 nb         1 KZU      -0.209000
     31 O1          -0.3530    21.7480    11.7940 o          1 KZU      -0.563100
     32 O24          2.1020    15.1760    10.9340 os         1 KZU      -0.347100
     33 O31         -0.0750    13.9710     5.8480 os         1 KZU      -0.435000
     34 S36         -0.3290    20.0380     9.6290 ss         1 KZU       0.064600
     35 S4           1.3280    24.8830    11.7330 ss         1 KZU      -0.262300
     36 H1           3.6890    13.8480    10.6320 h1         1 KZU       0.061700
     37 H2           2.3980    13.3470    11.7230 h1         1 KZU       0.061700
     38 H3           4.3310    15.8500     9.6130 ha         1 KZU       0.116000
     39 H4           4.3770    17.3170     7.6390 ha         1 KZU       0.110000
     40 H5          -1.1600    15.6420     5.4850 h1         1 KZU       0.032700
     41 H6           0.5820    15.8430     5.2220 h1         1 KZU       0.032700
     42 H7          -0.3960    14.9530     4.0410 h1         1 KZU       0.032700
     43 H8           0.0710    16.2730     9.8050 ha         1 KZU       0.135000
     44 H9          -0.3130    20.3780     6.0640 h4         1 KZU       0.032100
     45 H10         -1.0300    24.8320    11.2470 h1         1 KZU       0.108200
     46 H11         -0.6090    24.0840    12.7920 h1         1 KZU       0.108200
     47 H12         -0.2880    17.8620     6.6140 hc         1 KZU       0.058200
     48 H13         -1.0980    17.4520     8.1130 hc         1 KZU       0.058200
     49 H14          4.8620    27.1780     8.8980 hc         1 KZU       0.063033
     50 H15          4.0660    28.1660     7.6640 hc         1 KZU       0.063033
     51 H16          3.9580    28.6050     9.3730 hc         1 KZU       0.063033
     52 H17          2.2920    18.2910     6.7470 ha         1 KZU       0.113000
     53 H18          3.3090    13.2050     7.8730 h4         1 KZU       0.165000
     54 H19          0.3570    11.3900     6.2380 h1         1 KZU       0.080200
     55 H20          2.1050    11.4830     6.0280 h1         1 KZU       0.080200
     56 H21          1.9720    13.9070     5.5610 h1         1 KZU       0.032200
     57 H22          1.0290    12.9470     4.4180 h1         1 KZU       0.032200
     58 H23         -0.3780    24.6260     6.7990 hc         1 KZU       0.063033
     59 H24         -1.2870    26.0370     7.3160 hc         1 KZU       0.063033
     60 H25         -0.0680    26.1980     6.0430 hc         1 KZU       0.063033
     61 H26          1.9840    27.2460     6.8360 ha         1 KZU       0.136000
     62 H27         -0.3160    23.6710     9.3070 hn         1 KZU       0.372500
     63 C29          1.2220    12.0430     6.3350 c3         1 KZU       0.076600
@<TRIPOS>BOND
     1     1    19 1   
     2     1    32 1   
     3     1    36 1   
     4     1    37 1   
     5     2     3 ar  
     6     2     7 ar  
     7     2    32 1   
     8     3     4 ar  
     9     3    38 1   
    10     4    18 ar  
    11     4    39 1   
    12     5     7 ar  
    13     5    14 1   
    14     5    18 ar  
    15     6    33 1   
    16     6    40 1   
    17     6    41 1   
    18     6    42 1   
    19     7    43 1   
    20     8     9 2   
    21     8    14 1   
    22     8    34 1   
    23     9    26 1   
    24     9    44 1   
    25    10    24 ar  
    26    10    30 ar  
    27    10    35 1   
    28    11    22 1   
    29    11    23 ar  
    30    11    30 ar  
    31    12    13 1   
    32    12    35 1   
    33    12    45 1   
    34    12    46 1   
    35    13    25 1   
    36    13    31 2   
    37    14    47 1   
    38    14    48 1   
    39    15    25 1   
    40    15    26 2   
    41    15    34 1   
    42    16    17 1   
    43    16    23 ar  
    44    16    24 ar  
    45    17    49 1   
    46    17    50 1   
    47    17    51 1   
    48    18    52 1   
    49    19    20 2   
    50    19    29 1   
    51    20    27 1   
    52    20    53 1   
    53    21    33 1   
    54    21    56 1   
    55    21    57 1   
    56    21    63 1   
    57    22    58 1   
    58    22    59 1   
    59    22    60 1   
    60    23    61 1   
    61    25    62 1   
    62    27    28 1   
    63    27    63 1   
    64    28    29 2   
    65    54    63 1   
    66    55    63 1   
@<TRIPOS>SUBSTRUCTURE
     1 KZU         1 TEMP              0 ****  ****    0 ROOT
