@<TRIPOS>MOLECULE
KZU
   63    66     1     0     0
SMALL
No Charge or Current Charge


@<TRIPOS>ATOM
      1 C25          3.6680    16.2600    10.0530 c3         1 KZU       0.152300
      2 C23          1.8290    17.5810     9.0330 ca         1 KZU       0.118100
      3 C22          2.4580    17.6980     7.7750 ca         1 KZU      -0.155000
      4 C21          1.7530    18.2360     6.6840 ca         1 KZU      -0.100000
      5 C19         -0.2070    18.5630     8.0990 ca         1 KZU      -0.071300
      6 C32          0.6860    14.2430     4.5950 c3         1 KZU       0.143900
      7 C35          0.5040    18.0240     9.1880 ca         1 KZU      -0.106000
      8 C17         -1.6930    20.5210     8.5800 cc         1 KZU      -0.272300
      9 C16         -1.7910    21.5570     7.6800 cd         1 KZU       0.294900
     10 C5           1.5190    24.5480    10.4680 ca         1 KZU       0.240300
     11 C7           1.5910    24.6150     8.1710 ca         1 KZU       0.156300
     12 C3          -0.7310    25.4390    11.9650 c3         1 KZU      -0.057400
     13 C2          -1.3320    24.0800    11.5860 c          1 KZU       0.608100
     14 C18         -1.6380    19.0490     8.2790 c3         1 KZU       0.052200
     15 C14         -1.6690    22.7340     9.5520 cc         1 KZU       0.543300
     16 C10          2.0390    22.5880     9.3820 ca         1 KZU       0.156300
     17 C11          2.3770    21.1130     9.4650 c3         1 KZU      -0.157900
     18 C20          0.4260    18.6660     6.8450 ca         1 KZU      -0.118000
     19 C26          3.3590    14.9580     9.3450 cc         1 KZU       0.151300
     20 C27          3.7190    14.5840     8.0870 cd         1 KZU      -0.194000
     21 C30          2.6560    13.1490     5.4790 c3         1 KZU       0.139600
     22 C8           1.4260    25.4100     6.8910 c3         1 KZU      -0.157900
     23 C9           1.9250    23.2510     8.1490 ca         1 KZU      -0.227000
     24 N12          1.8370    23.2380    10.5450 nb         1 KZU      -0.209000
     25 N13         -1.5460    23.9050    10.2430 ns         1 KZU      -0.473400
     26 N15         -1.7780    22.8260     8.2410 nd         1 KZU      -0.716000
     27 N28          3.1480    13.3400     7.9450 na         1 KZU       0.129800
     28 N33          2.5010    12.9770     9.0990 nd         1 KZU      -0.185800
     29 N34          2.6330    13.9670     9.9460 nc         1 KZU      -0.339000
     30 N6           1.3800    25.2650     9.3330 nb         1 KZU      -0.209000
     31 O1          -1.5420    23.2080    12.4150 o          1 KZU      -0.563100
     32 O24          2.4680    17.0620    10.1430 os         1 KZU      -0.347100
     33 O31          1.2810    13.5200     5.6850 os         1 KZU      -0.435000
     34 S36         -1.5820    21.1140    10.2110 ss         1 KZU       0.064600
     35 S4           1.1290    25.3710    12.0030 ss         1 KZU      -0.262300
     36 H1           4.4680    16.7960     9.5280 h1         1 KZU       0.061700
     37 H2           4.0380    16.0290    11.0600 h1         1 KZU       0.061700
     38 H3           3.4880    17.3930     7.6270 ha         1 KZU       0.116000
     39 H4           2.2380    18.3270     5.7150 ha         1 KZU       0.110000
     40 H5          -0.3600    14.4840     4.8230 h1         1 KZU       0.032700
     41 H6           1.2220    15.1850     4.4140 h1         1 KZU       0.032700
     42 H7           0.7080    13.6480     3.6730 h1         1 KZU       0.032700
     43 H8           0.0290    17.9450    10.1630 ha         1 KZU       0.135000
     44 H9          -1.8630    21.4510     6.6040 h4         1 KZU       0.032100
     45 H10         -1.0600    26.1910    11.2390 h1         1 KZU       0.108200
     46 H11         -1.1120    25.7210    12.9540 h1         1 KZU       0.108200
     47 H12         -2.2200    18.8360     7.3730 hc         1 KZU       0.058200
     48 H13         -2.1300    18.4870     9.0830 hc         1 KZU       0.058200
     49 H14          1.7530    20.6030    10.2080 hc         1 KZU       0.063033
     50 H15          2.2170    20.6150     8.5020 hc         1 KZU       0.063033
     51 H16          3.4260    20.9670     9.7470 hc         1 KZU       0.063033
     52 H17         -0.1090    19.0870     5.9970 ha         1 KZU       0.113000
     53 H18          4.2890    15.0860     7.3160 h4         1 KZU       0.165000
     54 H19          2.5780    11.5700     6.9600 h1         1 KZU       0.080200
     55 H20          4.2140    12.1450     6.5980 h1         1 KZU       0.080200
     56 H21          3.2700    14.0330     5.2610 h1         1 KZU       0.032200
     57 H22          2.7460    12.4530     4.6350 h1         1 KZU       0.032200
     58 H23          0.4080    25.3020     6.4960 hc         1 KZU       0.063033
     59 H24          1.6130    26.4790     7.0520 hc         1 KZU       0.063033
     60 H25          2.1230    25.0650     6.1190 hc         1 KZU       0.063033
     61 H26          2.0810    22.7260     7.2110 ha         1 KZU       0.136000
     62 H27         -1.4460    24.7280     9.6700 hn         1 KZU       0.372500
     63 C29          3.1780    12.4660     6.7600 c3         1 KZU       0.076600
@<TRIPOS>BOND
     1     1    19 1   
     2     1    32 1   
     3     1    36 1   
     4     1    37 1   
     5     2     3 ar  
     6     2     7 ar  
     7     2    32 1   
     8     3     4 ar  
     9     3    38 1   
    10     4    18 ar  
    11     4    39 1   
    12     5     7 ar  
    13     5    14 1   
    14     5    18 ar  
    15     6    33 1   
    16     6    40 1   
    17     6    41 1   
    18     6    42 1   
    19     7    43 1   
    20     8     9 2   
    21     8    14 1   
    22     8    34 1   
    23     9    26 1   
    24     9    44 1   
    25    10    24 ar  
    26    10    30 ar  
    27    10    35 1   
    28    11    22 1   
    29    11    23 ar  
    30    11    30 ar  
    31    12    13 1   
    32    12    35 1   
    33    12    45 1   
    34    12    46 1   
    35    13    25 1   
    36    13    31 2   
    37    14    47 1   
    38    14    48 1   
    39    15    25 1   
    40    15    26 2   
    41    15    34 1   
    42    16    17 1   
    43    16    23 ar  
    44    16    24 ar  
    45    17    49 1   
    46    17    50 1   
    47    17    51 1   
    48    18    52 1   
    49    19    20 2   
    50    19    29 1   
    51    20    27 1   
    52    20    53 1   
    53    21    33 1   
    54    21    56 1   
    55    21    57 1   
    56    21    63 1   
    57    22    58 1   
    58    22    59 1   
    59    22    60 1   
    60    23    61 1   
    61    25    62 1   
    62    27    28 1   
    63    27    63 1   
    64    28    29 2   
    65    54    63 1   
    66    55    63 1   
@<TRIPOS>SUBSTRUCTURE
     1 KZU         1 TEMP              0 ****  ****    0 ROOT
