@<TRIPOS>MOLECULE
KZV
   36    37     1     0     0
SMALL
No Charge or Current Charge


@<TRIPOS>ATOM
      1 N           -1.1180     2.6860     1.3160 n8         1 KZV      -0.987200
      2 CB1         -2.6050     2.0420    -0.6200 c3         1 KZV       0.087600
      3 CA1         -1.9900     1.6010     0.7360 c3         1 KZV       0.153200
      4 C1          -1.2810     0.2430     0.5970 cc         1 KZV       0.457900
      5 N2           0.0450     0.1390     0.4130 nd         1 KZV      -0.684300
      6 N3          -1.9380    -0.9810     0.6490 n          1 KZV      -0.298300
      7 C2          -1.0320    -2.0010     0.4890 c          1 KZV       0.539200
      8 O2          -1.2400    -3.2090     0.4700 o          1 KZV      -0.494000
      9 CA2          0.2260    -1.2400     0.3480 cd         1 KZV       0.040400
     10 CA3         -3.4030    -1.2260     0.7760 c3         1 KZV      -0.057000
     11 CB2          1.4650    -1.8160     0.1430 ce         1 KZV      -0.110200
     12 CG2          2.8160    -1.2030    -0.0390 ca         1 KZV      -0.048800
     13 CD1          3.7740    -1.8780    -0.8230 ca         1 KZV      -0.083000
     14 CD2          3.1730     0.0170     0.5760 ca         1 KZV      -0.075000
     15 CE1          5.0600    -1.3380    -1.0080 ca         1 KZV      -0.141000
     16 CE2          4.4570     0.5550     0.3910 ca         1 KZV       0.058000
     17 CZ           5.4050    -0.1200    -0.4030 ca         1 KZV       0.102100
     18 OH           6.6580     0.3960    -0.5870 oh         1 KZV      -0.535100
     19 C           -4.0590    -1.8430    -0.4820 c          1 KZV       0.713000
     20 O           -3.8030    -1.3450    -1.5690 o          1 KZV      -0.713500
     21 F            4.7820     1.7250     0.9890 f          1 KZV      -0.196000
     22 HN1         -0.7990     2.3910     2.2470 hn         1 KZV       0.404000
     23 HN2         -0.2420     2.7030     0.7800 hn         1 KZV       0.404000
     24 HG1         -4.0330     3.5630    -1.8530 hs         1 KZV       0.198800
     25 HB11        -3.1790     1.2050    -1.0390 h1         1 KZV       0.093200
     26 HB12        -1.7950     2.2670    -1.3270 h1         1 KZV       0.093200
     27 HA1         -2.8250     1.4630     1.4370 h1         1 KZV       0.086700
     28 HA31        -3.5690    -1.9080     1.6190 h1         1 KZV       0.045200
     29 HA32        -3.9330    -0.2930     0.9970 h1         1 KZV       0.045200
     30 HB2          1.4490    -2.9030     0.0560 ha         1 KZV       0.189000
     31 HD1          3.5200    -2.8240    -1.2980 ha         1 KZV       0.118000
     32 HD2          2.4660     0.5460     1.2070 ha         1 KZV       0.166000
     33 HE1          5.7880    -1.8670    -1.6190 ha         1 KZV       0.123000
     34 H1           6.7110     1.2420    -0.0900 ho         1 KZV       0.473000
     35 OXT         -4.7990    -2.8050    -0.3360 o          1 KZV      -0.713500
     36 SG1         -3.7470     3.5140    -0.5290 sh         1 KZV      -0.454800
@<TRIPOS>BOND
     1     1     3 1   
     2     1    22 1   
     3     1    23 1   
     4     2     3 1   
     5     2    25 1   
     6     2    26 1   
     7     2    36 1   
     8     3     4 1   
     9     3    27 1   
    10     4     5 2   
    11     4     6 1   
    12     5     9 1   
    13     6     7 1   
    14     6    10 1   
    15     7     8 2   
    16     7     9 1   
    17     9    11 2   
    18    10    19 1   
    19    10    28 1   
    20    10    29 1   
    21    11    12 1   
    22    11    30 1   
    23    12    13 ar  
    24    12    14 ar  
    25    13    15 ar  
    26    13    31 1   
    27    14    16 ar  
    28    14    32 1   
    29    15    17 ar  
    30    15    33 1   
    31    16    17 ar  
    32    16    21 1   
    33    17    18 1   
    34    18    34 1   
    35    19    20 1   
    36    19    35 1   
    37    24    36 1   
@<TRIPOS>SUBSTRUCTURE
     1 KZV         1 TEMP              0 ****  ****    0 ROOT
