@<TRIPOS>MOLECULE
KZV
   36    37     1     0     0
SMALL
bcc


@<TRIPOS>ATOM
      1 N           -1.1620     2.5420     1.4070 n8         1 KZV      -0.876800
      2 CB1         -2.5680     1.9840    -0.4840 c3         1 KZV       0.039700
      3 CA1         -1.9970     1.5060     0.8490 c3         1 KZV       0.153200
      4 C1          -1.2800     0.2000     0.6290 cc         1 KZV       0.457900
      5 N2          -0.0090     0.1280     0.4180 nd         1 KZV      -0.684300
      6 N3          -1.9200    -1.0170     0.6300 n          1 KZV      -0.365300
      7 C2          -0.9850    -1.9860     0.3440 c          1 KZV       0.681700
      8 O2          -1.1990    -3.1770     0.2410 o          1 KZV      -0.569500
      9 CA2          0.2760    -1.2160     0.2320 cd         1 KZV       0.040400
     10 CA3         -3.3310    -1.3000     0.6980 c3         1 KZV      -0.057000
     11 CB2          1.4700    -1.7960     0.0000 ce         1 KZV      -0.060200
     12 CG2          2.7770    -1.1870    -0.1090 ca         1 KZV      -0.048800
     13 CD1          3.8770    -2.0150    -0.3580 ca         1 KZV      -0.101000
     14 CD2          3.0070     0.1900     0.0290 ca         1 KZV      -0.093000
     15 CE1          5.1580    -1.5080    -0.4690 ca         1 KZV      -0.159000
     16 CE2          4.2840     0.6750    -0.0820 ca         1 KZV       0.022900
     17 CZ           5.3880    -0.1430    -0.3320 ca         1 KZV       0.102100
     18 OH           6.6370     0.3260    -0.4390 oh         1 KZV      -0.496100
     19 C           -3.9820    -1.5150    -0.6890 c          1 KZV       0.923600
     20 O           -3.2950    -1.2410    -1.6860 o          1 KZV      -0.818800
     21 F            4.5080     1.9970     0.0540 f          1 KZV      -0.160900
     22 HN1         -0.8510     2.2760     2.3330 hn         1 KZV       0.348800
     23 HN2         -0.3230     2.6450     0.8470 hn         1 KZV       0.348800
     24 HG1         -4.3510     3.4050    -1.1860 hs         1 KZV       0.198800
     25 HB11        -3.2510     1.2540    -0.9130 h1         1 KZV       0.093200
     26 HB12        -1.7560     2.1330    -1.1980 h1         1 KZV       0.093200
     27 HA1         -2.8280     1.3400     1.5410 h1         1 KZV       0.086700
     28 HA31        -3.4780    -2.1840     1.3190 h1         1 KZV       0.045200
     29 HA32        -3.8360    -0.4810     1.2120 h1         1 KZV       0.045200
     30 HB2          1.4490    -2.8750    -0.1160 ha         1 KZV       0.139000
     31 HD1          3.7270    -3.0820    -0.4660 ha         1 KZV       0.136000
     32 HD2          2.1900     0.8720     0.2230 ha         1 KZV       0.184000
     33 HE1          5.9950    -2.1670    -0.6620 ha         1 KZV       0.141000
     34 H1           6.6660     1.2860    -0.3440 ho         1 KZV       0.434000
     35 OXT         -5.1540    -1.9300    -0.6480 o          1 KZV      -0.818800
     36 SG1         -3.4490     3.5560    -0.2100 sh         1 KZV      -0.406900
@<TRIPOS>BOND
     1     1     3 1   
     2     1    22 1   
     3     1    23 1   
     4     2     3 1   
     5     2    25 1   
     6     2    26 1   
     7     2    36 1   
     8     3     4 1   
     9     3    27 1   
    10     4     5 2   
    11     4     6 1   
    12     5     9 1   
    13     6     7 1   
    14     6    10 1   
    15     7     8 2   
    16     7     9 1   
    17     9    11 2   
    18    10    19 1   
    19    10    28 1   
    20    10    29 1   
    21    11    12 1   
    22    11    30 1   
    23    12    13 ar  
    24    12    14 ar  
    25    13    15 ar  
    26    13    31 1   
    27    14    16 ar  
    28    14    32 1   
    29    15    17 ar  
    30    15    33 1   
    31    16    17 ar  
    32    16    21 1   
    33    17    18 1   
    34    18    34 1   
    35    19    20 1   
    36    19    35 1   
    37    24    36 1   
@<TRIPOS>SUBSTRUCTURE
     1 KZV         1 TEMP              0 ****  ****    0 ROOT
