@<TRIPOS>MOLECULE
KZX
   31    32     1     0     0
SMALL
No Charge or Current Charge


@<TRIPOS>ATOM
      1 N1           8.5780     0.6830    21.1440 ns         1 KZX      -0.159000
      2 C4           7.8840     2.0710    19.1810 ca         1 KZX       0.335900
      3 C5           7.7540     0.9210    20.0030 ca         1 KZX      -0.083000
      4 C6           9.7000     1.3390    21.6340 c          1 KZX       0.599100
      5 C7          10.2750     0.7300    22.9180 c3         1 KZX      -0.111100
      6 C8          11.4680    -0.1640    22.5980 ca         1 KZX      -0.046300
      7 C10         13.8710    -0.4480    22.2550 ca         1 KZX      -0.083000
      8 C13         11.2790    -1.5350    22.3320 ca         1 KZX      -0.132000
      9 C9          12.7700     0.3740    22.5570 ca         1 KZX      -0.109000
     10 N            7.1030     2.3060    18.0990 nb         1 KZX      -0.646000
     11 C12         12.3800    -2.3520    22.0320 ca         1 KZX       0.168000
     12 C1           6.7530    -0.0220    19.6770 ca         1 KZX      -0.080300
     13 C11         13.6760    -1.8140    21.9930 ca         1 KZX      -0.140000
     14 C            6.5390    -1.2860    20.5040 c3         1 KZX      -0.050800
     15 C2           5.9480     0.2290    18.5510 ca         1 KZX      -0.146000
     16 O           10.2180     2.3070    21.0920 o          1 KZX      -0.560100
     17 C3           6.1550     1.3940    17.7950 ca         1 KZX       0.318900
     18 H1           8.2910    -0.1150    21.6960 hn         1 KZX       0.150000
     19 H2           8.6220     2.8420    19.3840 h4         1 KZX       0.043100
     20 H3          10.5920     1.5420    23.5820 hc         1 KZX       0.066700
     21 H4           9.5070     0.1300    23.4200 hc         1 KZX       0.066700
     22 H5          14.8740    -0.0250    22.2250 ha         1 KZX       0.119000
     23 H6          10.2830    -1.9710    22.3570 ha         1 KZX       0.131000
     24 H7          12.9300     1.4310    22.7560 ha         1 KZX       0.116000
     25 H8          14.5230    -2.4550    21.7590 ha         1 KZX       0.134000
     26 H9           7.4480    -1.8990    20.5320 hc         1 KZX       0.046367
     27 H10          6.2650    -1.0400    21.5370 hc         1 KZX       0.046367
     28 H11          5.7370    -1.9100    20.0920 hc         1 KZX       0.046367
     29 H12          5.1670    -0.4650    18.2560 ha         1 KZX       0.122000
     30 H13          5.5400     1.6040    16.9210 h4         1 KZX       0.022100
     31 F           12.1920    -3.6660    21.7780 f          1 KZX      -0.183000
@<TRIPOS>BOND
     1     1     3 1   
     2     1     4 1   
     3     1    18 1   
     4     2     3 ar  
     5     2    10 ar  
     6     2    19 1   
     7     3    12 ar  
     8     4     5 1   
     9     4    16 2   
    10     5     6 1   
    11     5    20 1   
    12     5    21 1   
    13     6     8 ar  
    14     6     9 ar  
    15     7     9 ar  
    16     7    13 ar  
    17     7    22 1   
    18     8    11 ar  
    19     8    23 1   
    20     9    24 1   
    21    10    17 ar  
    22    11    13 ar  
    23    11    31 1   
    24    12    14 1   
    25    12    15 ar  
    26    13    25 1   
    27    14    26 1   
    28    14    27 1   
    29    14    28 1   
    30    15    17 ar  
    31    15    29 1   
    32    17    30 1   
@<TRIPOS>SUBSTRUCTURE
     1 KZX         1 TEMP              0 ****  ****    0 ROOT
