@<TRIPOS>MOLECULE
KZX
   31    32     1     0     0
SMALL
abcg2


@<TRIPOS>ATOM
      1 N1           8.3460    -0.2350    20.7700 ns         1 KZX      -0.159000
      2 C4           8.1440     0.5010    18.4460 ca         1 KZX       0.335900
      3 C5           7.5880     0.3000    19.7110 ca         1 KZX      -0.083000
      4 C6           9.6600     0.0110    21.0390 c          1 KZX       0.599100
      5 C7          10.1560    -0.6730    22.3120 c3         1 KZX      -0.111100
      6 C8          11.6540    -0.7020    22.4160 ca         1 KZX      -0.046300
      7 C10         13.7220     0.1530    23.3370 ca         1 KZX      -0.083000
      8 C13         12.3870    -1.5930    21.6310 ca         1 KZX      -0.132000
      9 C9          12.3320     0.1680    23.2670 ca         1 KZX      -0.109000
     10 N            7.4570     0.9880    17.4130 nb         1 KZX      -0.646000
     11 C12         13.7650    -1.5810    21.7150 ca         1 KZX       0.168000
     12 C1           6.2360     0.6070    19.9180 ca         1 KZX      -0.080300
     13 C11         14.4600    -0.7270    22.5540 ca         1 KZX      -0.140000
     14 C            5.5840     0.4170    21.2550 c3         1 KZX      -0.050800
     15 C2           5.5300     1.1030    18.8270 ca         1 KZX      -0.146000
     16 O           10.3680     0.7270    20.3460 o          1 KZX      -0.560100
     17 C3           6.1680     1.2830    17.6080 ca         1 KZX       0.318900
     18 H1           7.8420    -0.7820    21.4520 hn         1 KZX       0.150000
     19 H2           9.1820     0.2550    18.2730 h4         1 KZX       0.043100
     20 H3           9.7260    -0.1320    23.1590 hc         1 KZX       0.066700
     21 H4           9.7460    -1.6850    22.3450 hc         1 KZX       0.066700
     22 H5          14.2370     0.8330    24.0040 ha         1 KZX       0.119000
     23 H6          11.8940    -2.2830    20.9570 ha         1 KZX       0.131000
     24 H7          11.7690     0.8620    23.8790 ha         1 KZX       0.116000
     25 H8          15.5410    -0.7570    22.5880 ha         1 KZX       0.134000
     26 H9           5.5480    -0.6410    21.5330 hc         1 KZX       0.046367
     27 H10          6.1400     0.9370    22.0380 hc         1 KZX       0.046367
     28 H11          4.5630     0.7950    21.2410 hc         1 KZX       0.046367
     29 H12          4.4830     1.3580    18.9320 ha         1 KZX       0.122000
     30 H13          5.6230     1.6750    16.7570 h4         1 KZX       0.022100
     31 F           14.4700    -2.4450    20.9380 f          1 KZX      -0.183000
@<TRIPOS>BOND
     1     1     3 1   
     2     1     4 1   
     3     1    18 1   
     4     2     3 ar  
     5     2    10 ar  
     6     2    19 1   
     7     3    12 ar  
     8     4     5 1   
     9     4    16 2   
    10     5     6 1   
    11     5    20 1   
    12     5    21 1   
    13     6     8 ar  
    14     6     9 ar  
    15     7     9 ar  
    16     7    13 ar  
    17     7    22 1   
    18     8    11 ar  
    19     8    23 1   
    20     9    24 1   
    21    10    17 ar  
    22    11    13 ar  
    23    11    31 1   
    24    12    14 1   
    25    12    15 ar  
    26    13    25 1   
    27    14    26 1   
    28    14    27 1   
    29    14    28 1   
    30    15    17 ar  
    31    15    29 1   
    32    17    30 1   
@<TRIPOS>SUBSTRUCTURE
     1 KZX         1 TEMP              0 ****  ****    0 ROOT
