@<TRIPOS>MOLECULE
KZY
   39    40     1     0     0
SMALL
No Charge or Current Charge


@<TRIPOS>ATOM
      1 N            2.1280     2.3470    -1.4610 n8         1 KZY      -0.995200
      2 CB1          2.0460     2.0690     1.0390 c3         1 KZY       0.034600
      3 CA1          2.2950     1.3730    -0.3250 c3         1 KZY       0.142200
      4 C1           1.4450     0.0950    -0.4610 cc         1 KZY       0.502900
      5 N2           0.1080     0.1060    -0.3360 nd         1 KZY      -0.668300
      6 N3           1.9710    -1.1600    -0.7420 n          1 KZY      -0.300300
      7 C2           0.9580    -2.0840    -0.8050 c          1 KZY       0.540200
      8 O2           1.0390    -3.2890    -1.0130 o          1 KZY      -0.505000
      9 CA2         -0.2190    -1.2300    -0.5490 cd         1 KZY       0.031400
     10 CA3          3.4070    -1.5210    -0.9030 c3         1 KZY      -0.056000
     11 CB2         -1.5180    -1.6960    -0.4810 ce         1 KZY      -0.101200
     12 CG2         -2.7950    -0.9950    -0.1410 ca         1 KZY      -0.070800
     13 CD1         -3.0170     0.3570    -0.4770 ca         1 KZY      -0.043000
     14 CD2         -3.8170    -1.7160     0.5050 ca         1 KZY      -0.067000
     15 CE1         -4.2350     0.9910    -0.1560 ca         1 KZY      -0.121300
     16 CE2         -5.0330    -1.0910     0.8290 ca         1 KZY      -0.218000
     17 CZ          -5.2430     0.2560     0.5030 ca         1 KZY       0.130100
     18 OH          -6.4320     0.8410     0.8270 oh         1 KZY      -0.539100
     19 C            4.1530    -1.7730     0.4270 c          1 KZY       0.713000
     20 O            4.0060    -0.9650     1.3330 o          1 KZY      -0.716000
     21 CF          -4.4480     2.4560    -0.5290 c3         1 KZY      -0.028800
     22 HN1          1.1450     2.6460    -1.5020 hn         1 KZY       0.399500
     23 HN2          2.6420     3.2060    -1.2340 hn         1 KZY       0.399500
     24 HG1          2.3120     4.4320     0.5370 hs         1 KZY       0.177800
     25 HB11         2.2790     1.3550     1.8400 h1         1 KZY       0.109700
     26 HB12         0.9810     2.3230     1.1310 h1         1 KZY       0.109700
     27 HA1          3.3500     1.0720    -0.3190 h1         1 KZY       0.093700
     28 HA31         3.4820    -2.4280    -1.5170 h1         1 KZY       0.046200
     29 HA32         3.9290    -0.7210    -1.4410 h1         1 KZY       0.046200
     30 HB2         -1.6180    -2.7730    -0.6170 ha         1 KZY       0.184000
     31 HD1         -2.2480     0.9160    -1.0010 ha         1 KZY       0.151000
     32 HD2         -3.6670    -2.7620     0.7640 ha         1 KZY       0.111000
     33 HE2         -5.8080    -1.6640     1.3330 ha         1 KZY       0.103000
     34 H1          -6.9910     0.1700     1.2730 ho         1 KZY       0.456000
     35 OXT          4.8250    -2.7880     0.5290 o          1 KZY      -0.716000
     36 H2          -5.3000     2.5670    -1.2100 hc         1 KZY       0.037033
     37 H3          -4.6480     3.0630     0.3620 hc         1 KZY       0.037033
     38 H4          -3.5700     2.8830    -1.0280 hc         1 KZY       0.037033
     39 SG1          3.0490     3.6150     1.3280 sh         1 KZY      -0.449800
@<TRIPOS>BOND
     1     1     3 1   
     2     1    22 1   
     3     1    23 1   
     4     2     3 1   
     5     2    25 1   
     6     2    26 1   
     7     2    39 1   
     8     3     4 1   
     9     3    27 1   
    10     4     5 2   
    11     4     6 1   
    12     5     9 1   
    13     6     7 1   
    14     6    10 1   
    15     7     8 2   
    16     7     9 1   
    17     9    11 2   
    18    10    19 1   
    19    10    28 1   
    20    10    29 1   
    21    11    12 1   
    22    11    30 1   
    23    12    13 ar  
    24    12    14 ar  
    25    13    15 ar  
    26    13    31 1   
    27    14    16 ar  
    28    14    32 1   
    29    15    17 ar  
    30    15    21 1   
    31    16    17 ar  
    32    16    33 1   
    33    17    18 1   
    34    18    34 1   
    35    19    20 1   
    36    19    35 1   
    37    21    36 1   
    38    21    37 1   
    39    21    38 1   
    40    24    39 1   
@<TRIPOS>SUBSTRUCTURE
     1 KZY         1 TEMP              0 ****  ****    0 ROOT
