@<TRIPOS>MOLECULE
KZY
   39    40     1     0     0
SMALL
abcg2


@<TRIPOS>ATOM
      1 N            1.4420     2.4080    -1.5160 n8         1 KZY      -0.995200
      2 CB1          2.5570     1.8800     0.6880 c3         1 KZY       0.034600
      3 CA1          2.1860     1.4400    -0.7400 c3         1 KZY       0.142200
      4 C1           1.3850     0.1790    -0.6230 cc         1 KZY       0.502900
      5 N2           0.1090     0.1810    -0.4360 nd         1 KZY      -0.668300
      6 N3           1.9480    -1.0750    -0.6560 n          1 KZY      -0.300300
      7 C2           0.9470    -1.9920    -0.4240 c          1 KZY       0.540200
      8 O2           1.0850    -3.1980    -0.3600 o          1 KZY      -0.505000
      9 CA2         -0.2640    -1.1500    -0.3090 cd         1 KZY       0.031400
     10 CA3          3.3400    -1.4400    -0.7120 c3         1 KZY      -0.056000
     11 CB2         -1.4960    -1.6660    -0.1240 ce         1 KZY      -0.101200
     12 CG2         -2.7730    -0.9990    -0.0110 ca         1 KZY      -0.070800
     13 CD1         -2.9460     0.3930    -0.1010 ca         1 KZY      -0.043000
     14 CD2         -3.9110    -1.7850     0.1930 ca         1 KZY      -0.067000
     15 CE1         -4.1880     0.9910     0.0090 ca         1 KZY      -0.121300
     16 CE2         -5.1630    -1.2120     0.3090 ca         1 KZY      -0.218000
     17 CZ          -5.3080     0.1690     0.2180 ca         1 KZY       0.130100
     18 OH          -6.5000     0.7750     0.3240 oh         1 KZY      -0.539100
     19 C            3.9890    -1.6450     0.6760 c          1 KZY       0.713000
     20 O            3.3030    -1.3660     1.6730 o          1 KZY      -0.716000
     21 CF          -4.3480     2.4780    -0.0920 c3         1 KZY      -0.028800
     22 HN1          0.5980     2.6710    -1.0220 hn         1 KZY       0.399500
     23 HN2          1.9970     3.2480    -1.6210 hn         1 KZY       0.399500
     24 HG1          2.7800     4.2570     0.4560 hs         1 KZY       0.177800
     25 HB11         3.0700     1.0770     1.2170 h1         1 KZY       0.109700
     26 HB12         1.6550     2.1180     1.2530 h1         1 KZY       0.109700
     27 HA1          3.1150     1.2290    -1.2770 h1         1 KZY       0.093700
     28 HA31         3.4270    -2.3580    -1.2960 h1         1 KZY       0.046200
     29 HA32         3.8920    -0.6790    -1.2660 h1         1 KZY       0.046200
     30 HB2         -1.5330    -2.7490    -0.0510 ha         1 KZY       0.184000
     31 HD1         -2.0790     1.0200    -0.2620 ha         1 KZY       0.151000
     32 HD2         -3.8140    -2.8610     0.2630 ha         1 KZY       0.111000
     33 HE2         -6.0320    -1.8400     0.4670 ha         1 KZY       0.103000
     34 H1          -7.2010     0.1260     0.4560 ho         1 KZY       0.456000
     35 OXT          5.1580    -2.0670     0.6380 o          1 KZY      -0.716000
     36 H2          -5.0450     2.7580    -0.8830 hc         1 KZY       0.037033
     37 H3          -4.7290     2.9080     0.8360 hc         1 KZY       0.037033
     38 H4          -3.3930     2.9530    -0.3090 hc         1 KZY       0.037033
     39 SG1          3.6810     3.3070     0.7260 sh         1 KZY      -0.449800
@<TRIPOS>BOND
     1     1     3 1   
     2     1    22 1   
     3     1    23 1   
     4     2     3 1   
     5     2    25 1   
     6     2    26 1   
     7     2    39 1   
     8     3     4 1   
     9     3    27 1   
    10     4     5 2   
    11     4     6 1   
    12     5     9 1   
    13     6     7 1   
    14     6    10 1   
    15     7     8 2   
    16     7     9 1   
    17     9    11 2   
    18    10    19 1   
    19    10    28 1   
    20    10    29 1   
    21    11    12 1   
    22    11    30 1   
    23    12    13 ar  
    24    12    14 ar  
    25    13    15 ar  
    26    13    31 1   
    27    14    16 ar  
    28    14    32 1   
    29    15    17 ar  
    30    15    21 1   
    31    16    17 ar  
    32    16    33 1   
    33    17    18 1   
    34    18    34 1   
    35    19    20 1   
    36    19    35 1   
    37    21    36 1   
    38    21    37 1   
    39    21    38 1   
    40    24    39 1   
@<TRIPOS>SUBSTRUCTURE
     1 KZY         1 TEMP              0 ****  ****    0 ROOT
