@<TRIPOS>MOLECULE
KZZ
   72    77     1     0     0
SMALL
No Charge or Current Charge


@<TRIPOS>ATOM
      1 CAA         -9.7350     0.8490     1.1170 c3         1 KZZ       0.148900
      2 OAZ         -8.8660     0.0540     0.2890 os         1 KZZ      -0.340100
      3 CBD         -7.5320    -0.1550     0.5930 ca         1 KZZ       0.159100
      4 CAK         -6.9440     0.4060     1.7450 ca         1 KZZ      -0.221000
      5 CAJ         -5.5910     0.1780     2.0320 ca         1 KZZ      -0.070000
      6 CBK         -6.7450    -0.9500    -0.2750 ca         1 KZZ      -0.061000
      7 CAP         -7.3180    -1.5210    -1.4350 ca         1 KZZ      -0.080000
      8 CAG         -6.5440    -2.3090    -2.3010 ca         1 KZZ      -0.122000
      9 CAF         -5.1910    -2.5340    -2.0200 ca         1 KZZ      -0.103000
     10 CAO         -4.6080    -1.9740    -0.8720 ca         1 KZZ      -0.097000
     11 CBJ         -5.3730    -1.1790     0.0140 ca         1 KZZ       0.011000
     12 CBC         -4.7940    -0.6090     1.1790 ca         1 KZZ      -0.110300
     13 CAV         -3.3250    -0.8210     1.5570 c3         1 KZZ       0.224100
     14 NBL         -2.3700    -0.1120     0.6720 n3         1 KZZ      -0.732600
     15 CAS         -2.5530     1.3760     0.6600 c6         1 KZZ       0.173800
     16 CAR         -1.7280     2.0610    -0.4660 c6         1 KZZ      -0.008100
     17 CAW         -0.9520    -0.5110     0.9460 c6         1 KZZ       0.252100
     18 CBF         -0.0030     0.3210     0.1160 cc         1 KZZ      -0.143300
     19 CBG         -0.3400     1.4730    -0.5080 cd         1 KZZ      -0.143300
     20 NBM          0.8270     1.9050    -1.1390 na         1 KZZ       0.153800
     21 CAT          0.9870     3.1150    -1.9600 c3         1 KZZ       0.079600
     22 CAQ          1.3190     4.3670    -1.1170 c3         1 KZZ       0.128800
     23 NAC          1.4570     5.5940    -1.9410 n8         1 KZZ      -1.001200
     24 NAX          1.8980     1.0470    -0.9070 nd         1 KZZ      -0.524800
     25 CBE          1.3700     0.0950    -0.1360 cc         1 KZZ       0.204500
     26 CBA          2.1340    -1.0810     0.4180 c          1 KZZ       0.535600
     27 OAB          1.6760    -1.9580     1.1430 o          1 KZZ      -0.616100
     28 NAY          3.4580    -1.0950     0.0340 ns         1 KZZ      -0.493900
     29 CAU          4.4320    -2.1060     0.4340 c3         1 KZZ       0.147300
     30 CBB          5.8360    -1.7500    -0.0490 ca         1 KZZ      -0.098300
     31 CBI          6.6200    -0.7370     0.5680 ca         1 KZZ      -0.018000
     32 CAN          6.1420     0.0080     1.6720 ca         1 KZZ      -0.095000
     33 CAE          6.9400     1.0030     2.2620 ca         1 KZZ      -0.108000
     34 CAD          8.2230     1.2690     1.7610 ca         1 KZZ      -0.107000
     35 CAL          8.7100     0.5390     0.6660 ca         1 KZZ      -0.102000
     36 CBH          7.9170    -0.4590     0.0680 ca         1 KZZ      -0.041000
     37 CAM          8.4230    -1.1760    -1.0310 ca         1 KZZ      -0.091000
     38 CAH          7.6450    -2.1710    -1.6400 ca         1 KZZ      -0.113000
     39 CAI          6.3600    -2.4540    -1.1520 ca         1 KZZ      -0.098000
     40 H1          -9.3660     1.8800     1.1920 h1         1 KZZ       0.041700
     41 H2         -10.7440     0.8800     0.6880 h1         1 KZZ       0.041700
     42 H3          -9.8080     0.4250     2.1260 h1         1 KZZ       0.041700
     43 H4          -7.5180     1.0200     2.4320 ha         1 KZZ       0.116000
     44 H5          -5.1570     0.6210     2.9260 ha         1 KZZ       0.107000
     45 H6          -8.3660    -1.3590    -1.6750 ha         1 KZZ       0.124000
     46 H7          -6.9950    -2.7430    -3.1910 ha         1 KZZ       0.111000
     47 H8          -4.5900    -3.1420    -2.6930 ha         1 KZZ       0.112000
     48 H9          -3.5550    -2.1640    -0.6880 ha         1 KZZ       0.133000
     49 H10         -3.1700    -0.4980     2.5960 h1         1 KZZ       0.039200
     50 H11         -3.1200    -1.9000     1.5400 h1         1 KZZ       0.039200
     51 H13         -3.6100     1.6450     0.5170 h1         1 KZZ       0.039700
     52 H14         -2.2470     1.7940     1.6310 h1         1 KZZ       0.039700
     53 H15         -2.2280     1.9020    -1.4300 hc         1 KZZ       0.061200
     54 H16         -1.6990     3.1460    -0.2990 hc         1 KZZ       0.061200
     55 H17         -0.7160    -0.3760     2.0130 h1         1 KZZ       0.054200
     56 H18         -0.8220    -1.5800     0.7200 h1         1 KZZ       0.054200
     57 H19          1.7870     2.9390    -2.6890 h1         1 KZZ       0.074200
     58 H20          0.0560     3.2830    -2.5140 h1         1 KZZ       0.074200
     59 H21          0.5170     4.5270    -0.3820 h1         1 KZZ       0.044700
     60 H22          2.2560     4.1990    -0.5670 h1         1 KZZ       0.044700
     61 H23          1.6980     6.3860    -1.3290 hn         1 KZZ       0.401000
     62 H24          2.2820     5.5070    -2.5490 hn         1 KZZ       0.401000
     63 H26          3.7580    -0.3330    -0.5640 hn         1 KZZ       0.333500
     64 H27          4.4250    -2.2110     1.5270 h1         1 KZZ       0.061700
     65 H28          4.1250    -3.0720     0.0120 h1         1 KZZ       0.061700
     66 H29          5.1530    -0.1670     2.0850 ha         1 KZZ       0.128000
     67 H30          6.5610     1.5700     3.1100 ha         1 KZZ       0.114000
     68 H31          8.8390     2.0400     2.2200 ha         1 KZZ       0.112000
     69 H32          9.7060     0.7520     0.2820 ha         1 KZZ       0.111000
     70 H33          9.4180    -0.9630    -1.4150 ha         1 KZZ       0.113000
     71 H34          8.0380    -2.7230    -2.4910 ha         1 KZZ       0.114000
     72 H35          5.7690    -3.2280    -1.6370 ha         1 KZZ       0.112000
@<TRIPOS>BOND
     1     1     2 1   
     2     1    40 1   
     3     1    41 1   
     4     1    42 1   
     5     2     3 1   
     6     3     4 ar  
     7     3     6 ar  
     8     4     5 ar  
     9     4    43 1   
    10     5    12 ar  
    11     5    44 1   
    12     6     7 ar  
    13     6    11 ar  
    14     7     8 ar  
    15     7    45 1   
    16     8     9 ar  
    17     8    46 1   
    18     9    10 ar  
    19     9    47 1   
    20    10    11 ar  
    21    10    48 1   
    22    11    12 ar  
    23    12    13 1   
    24    13    14 1   
    25    13    49 1   
    26    13    50 1   
    27    14    15 1   
    28    14    17 1   
    29    15    16 1   
    30    15    51 1   
    31    15    52 1   
    32    16    19 1   
    33    16    53 1   
    34    16    54 1   
    35    17    18 1   
    36    17    55 1   
    37    17    56 1   
    38    18    19 2   
    39    18    25 1   
    40    19    20 1   
    41    20    21 1   
    42    20    24 1   
    43    21    22 1   
    44    21    57 1   
    45    21    58 1   
    46    22    23 1   
    47    22    59 1   
    48    22    60 1   
    49    23    61 1   
    50    23    62 1   
    51    24    25 2   
    52    25    26 1   
    53    26    27 2   
    54    26    28 1   
    55    28    29 1   
    56    28    63 1   
    57    29    30 1   
    58    29    64 1   
    59    29    65 1   
    60    30    31 ar  
    61    30    39 ar  
    62    31    32 ar  
    63    31    36 ar  
    64    32    33 ar  
    65    32    66 1   
    66    33    34 ar  
    67    33    67 1   
    68    34    35 ar  
    69    34    68 1   
    70    35    36 ar  
    71    35    69 1   
    72    36    37 ar  
    73    37    38 ar  
    74    37    70 1   
    75    38    39 ar  
    76    38    71 1   
    77    39    72 1   
@<TRIPOS>SUBSTRUCTURE
     1 KZZ         1 TEMP              0 ****  ****    0 ROOT
