@<TRIPOS>MOLECULE
KZZ
   72    77     1     0     0
SMALL
bcc


@<TRIPOS>ATOM
      1 CAA         -9.4470     0.9160     1.3170 c3         1 KZZ       0.125700
      2 OAZ         -8.6000     0.1490     0.4840 os         1 KZZ      -0.316900
      3 CBD         -7.3140     0.0020     0.8400 ca         1 KZZ       0.159100
      4 CAK         -6.7550     0.5290     1.9750 ca         1 KZZ      -0.239000
      5 CAJ         -5.3890     0.3130     2.2480 ca         1 KZZ      -0.088000
      6 CBK         -6.5130    -0.7670    -0.0600 ca         1 KZZ      -0.061000
      7 CAP         -7.0650    -1.3360    -1.2310 ca         1 KZZ      -0.098000
      8 CAG         -6.2890    -2.0790    -2.0800 ca         1 KZZ      -0.140000
      9 CAF         -4.9270    -2.2830    -1.7950 ca         1 KZZ      -0.121000
     10 CAO         -4.3670    -1.7360    -0.6710 ca         1 KZZ      -0.115000
     11 CBJ         -5.1370    -0.9660     0.2330 ca         1 KZZ       0.011000
     12 CBC         -4.5750    -0.4080     1.4200 ca         1 KZZ      -0.110300
     13 CAV         -3.1270    -0.6170     1.7730 c3         1 KZZ       0.224100
     14 NBL         -2.2150    -0.0220     0.8140 n3         1 KZZ      -0.732600
     15 CAS         -2.2910     1.4270     0.7780 c6         1 KZZ       0.173800
     16 CAR         -1.6410     1.9760    -0.4920 c6         1 KZZ      -0.008100
     17 CAW         -0.8570    -0.4990     1.0220 c6         1 KZZ       0.252100
     18 CBF          0.0480     0.1700     0.0450 cc         1 KZZ      -0.208600
     19 CBG         -0.3350     1.2900    -0.6490 cd         1 KZZ      -0.092600
     20 NBM          0.6900     1.6170    -1.4660 na         1 KZZ       0.132400
     21 CAT          0.7910     2.7760    -2.3260 c3         1 KZZ       0.050300
     22 CAQ          1.5000     3.9350    -1.6360 c3         1 KZZ       0.128800
     23 NAC          1.5610     5.0660    -2.5430 n8         1 KZZ      -0.890800
     24 NAX          1.7160     0.7940    -1.3320 nd         1 KZZ      -0.524800
     25 CBE          1.3470    -0.0950    -0.4190 cc         1 KZZ       0.269800
     26 CBA          2.2420    -1.1900     0.0030 c          1 KZZ       0.602600
     27 OAB          1.9280    -1.9310     0.9290 o          1 KZZ      -0.616100
     28 NAY          3.3890    -1.2900    -0.6860 ns         1 KZZ      -0.560900
     29 CAU          4.4170    -2.2740    -0.4250 c3         1 KZZ       0.147300
     30 CBB          5.7860    -1.6470    -0.4460 ca         1 KZZ      -0.098300
     31 CBI          6.2140    -0.7740     0.5970 ca         1 KZZ      -0.018000
     32 CAN          5.4130    -0.4720     1.7250 ca         1 KZZ      -0.113000
     33 CAE          5.8650     0.3690     2.7060 ca         1 KZZ      -0.126000
     34 CAD          7.1420     0.9590     2.6140 ca         1 KZZ      -0.125000
     35 CAL          7.9420     0.6850     1.5390 ca         1 KZZ      -0.120000
     36 CBH          7.5040    -0.1820     0.5110 ca         1 KZZ      -0.041000
     37 CAM          8.3350    -0.4750    -0.5970 ca         1 KZZ      -0.109000
     38 CAH          7.9070    -1.3210    -1.5790 ca         1 KZZ      -0.131000
     39 CAI          6.6270    -1.9040    -1.4980 ca         1 KZZ      -0.116000
     40 H1          -9.0950     1.9470     1.4110 h1         1 KZZ       0.041700
     41 H2         -10.4250     0.9200     0.8440 h1         1 KZZ       0.041700
     42 H3          -9.5370     0.4810     2.3150 h1         1 KZZ       0.041700
     43 H4          -7.3350     1.1150     2.6740 ha         1 KZZ       0.134000
     44 H5          -4.9780     0.7430     3.1540 ha         1 KZZ       0.125000
     45 H6          -8.1110    -1.1880    -1.4600 ha         1 KZZ       0.142000
     46 H7          -6.7240    -2.5100    -2.9730 ha         1 KZZ       0.129000
     47 H8          -4.3180    -2.8700    -2.4700 ha         1 KZZ       0.130000
     48 H9          -3.3140    -1.8790    -0.4790 ha         1 KZZ       0.151000
     49 H10         -2.9540    -0.2420     2.7960 h1         1 KZZ       0.039200
     50 H11         -2.9120    -1.6900     1.8080 h1         1 KZZ       0.039200
     51 H13         -3.3370     1.7300     0.7980 h1         1 KZZ       0.039700
     52 H14         -1.8100     1.8810     1.6610 h1         1 KZZ       0.039700
     53 H15         -2.2850     1.7890    -1.3550 hc         1 KZZ       0.061200
     54 H16         -1.5230     3.0580    -0.4050 hc         1 KZZ       0.061200
     55 H17         -0.5070    -0.3090     2.0520 h1         1 KZZ       0.054200
     56 H18         -0.8370    -1.5820     0.8850 h1         1 KZZ       0.054200
     57 H19          1.3260     2.4770    -3.2280 h1         1 KZZ       0.074200
     58 H20         -0.2140     3.0730    -2.6240 h1         1 KZZ       0.074200
     59 H21          0.9260     4.2250    -0.7530 h1         1 KZZ       0.044700
     60 H22          2.4780     3.5890    -1.2770 h1         1 KZZ       0.044700
     61 H23          1.8960     5.8800    -2.0450 hn         1 KZZ       0.345800
     62 H24          2.2460     4.8860    -3.2670 hn         1 KZZ       0.345800
     63 H26          3.5330    -0.6500    -1.4520 hn         1 KZZ       0.333500
     64 H27          4.2090    -2.7420     0.5360 h1         1 KZZ       0.061700
     65 H28          4.3760    -3.0680    -1.1750 h1         1 KZZ       0.061700
     66 H29          4.4310    -0.9130     1.8330 ha         1 KZZ       0.146000
     67 H30          5.2360     0.5840     3.5600 ha         1 KZZ       0.132000
     68 H31          7.4860     1.6220     3.3970 ha         1 KZZ       0.130000
     69 H32          8.9270     1.1290     1.4610 ha         1 KZZ       0.129000
     70 H33          9.3170    -0.0190    -0.6500 ha         1 KZZ       0.131000
     71 H34          8.5460    -1.5470    -2.4230 ha         1 KZZ       0.132000
     72 H35          6.3000    -2.5690    -2.2890 ha         1 KZZ       0.130000
@<TRIPOS>BOND
     1     1     2 1   
     2     1    40 1   
     3     1    41 1   
     4     1    42 1   
     5     2     3 1   
     6     3     4 ar  
     7     3     6 ar  
     8     4     5 ar  
     9     4    43 1   
    10     5    12 ar  
    11     5    44 1   
    12     6     7 ar  
    13     6    11 ar  
    14     7     8 ar  
    15     7    45 1   
    16     8     9 ar  
    17     8    46 1   
    18     9    10 ar  
    19     9    47 1   
    20    10    11 ar  
    21    10    48 1   
    22    11    12 ar  
    23    12    13 1   
    24    13    14 1   
    25    13    49 1   
    26    13    50 1   
    27    14    15 1   
    28    14    17 1   
    29    15    16 1   
    30    15    51 1   
    31    15    52 1   
    32    16    19 1   
    33    16    53 1   
    34    16    54 1   
    35    17    18 1   
    36    17    55 1   
    37    17    56 1   
    38    18    19 2   
    39    18    25 1   
    40    19    20 1   
    41    20    21 1   
    42    20    24 1   
    43    21    22 1   
    44    21    57 1   
    45    21    58 1   
    46    22    23 1   
    47    22    59 1   
    48    22    60 1   
    49    23    61 1   
    50    23    62 1   
    51    24    25 2   
    52    25    26 1   
    53    26    27 2   
    54    26    28 1   
    55    28    29 1   
    56    28    63 1   
    57    29    30 1   
    58    29    64 1   
    59    29    65 1   
    60    30    31 ar  
    61    30    39 ar  
    62    31    32 ar  
    63    31    36 ar  
    64    32    33 ar  
    65    32    66 1   
    66    33    34 ar  
    67    33    67 1   
    68    34    35 ar  
    69    34    68 1   
    70    35    36 ar  
    71    35    69 1   
    72    36    37 ar  
    73    37    38 ar  
    74    37    70 1   
    75    38    39 ar  
    76    38    71 1   
    77    39    72 1   
@<TRIPOS>SUBSTRUCTURE
     1 KZZ         1 TEMP              0 ****  ****    0 ROOT
