@<TRIPOS>MOLECULE
D01
   48    52     1     0     0
SMALL
abcg2


@<TRIPOS>ATOM
      1 N1          -2.9190     0.0080    -1.4150 na         1 D01      -0.172700
      2 C1          -3.5610     1.0250    -0.7770 ca         1 D01      -0.019200
      3 C2          -3.7250     2.3590    -1.1500 ca         1 D01      -0.127000
      4 C3          -4.4340     3.1760    -0.2990 ca         1 D01      -0.062000
      5 C4          -4.9690     2.6690     0.8990 ca         1 D01       0.085000
      6 CL1         -5.8550     3.7560     1.9240 cl         1 D01      -0.203000
      7 C5          -4.8200     1.3570     1.2790 ca         1 D01      -0.034000
      8 C6          -4.1010     0.5120     0.4220 ca         1 D01      -0.126800
      9 C7          -3.7640    -0.8700     0.4770 cc         1 D01      -0.097200
     10 C8          -3.0590    -1.1260    -0.6640 cd         1 D01      -0.295200
     11 S1          -2.2730    -2.6230    -1.1200 sy         1 D01       1.178200
     12 O1          -2.9740    -3.6970    -0.4460 o          1 D01      -0.530000
     13 O2          -2.1400    -2.6130    -2.5660 o          1 D01      -0.530000
     14 N2          -0.7480    -2.5650    -0.4920 n3         1 D01      -0.719500
     15 C9          -0.6360    -2.6110     0.9680 c6         1 D01       0.161800
     16 C10          0.7930    -2.9760     1.3360 c6         1 D01       0.094500
     17 N3           1.7340    -2.0500     0.7340 n          1 D01      -0.400800
     18 C11          2.3110    -1.0860     1.4820 c          1 D01       0.636300
     19 O3           2.0890    -0.9170     2.6680 o          1 D01      -0.562100
     20 C12          3.3190    -0.2210     0.8030 cc         1 D01      -0.153600
     21 C13          3.3050     1.1330     0.7870 cd         1 D01      -0.078200
     22 C14          4.4580     1.6480     0.1340 ca         1 D01      -0.149100
     23 C15          5.3460     0.6660    -0.3130 ca         1 D01      -0.148000
     24 S2           4.7360    -0.9040     0.0650 ss         1 D01       0.141400
     25 C16          6.5310     0.9950    -0.9590 ca         1 D01      -0.103000
     26 C17          6.7680     2.3420    -1.1350 ca         1 D01      -0.070000
     27 C18          5.8700     3.3020    -0.6870 ca         1 D01      -0.228000
     28 N4           4.7270     2.9730    -0.0600 na         1 D01       0.502300
     29 O4           3.9080     3.8500     0.3490 o          1 D01      -0.497000
     30 C19          1.6100    -2.0050    -0.7130 c6         1 D01       0.094500
     31 C20          0.1910    -1.6290    -1.1110 c6         1 D01       0.161800
     32 HN1         -2.5130     0.0580    -2.3360 hn         1 D01       0.370000
     33 H2          -3.3110     2.7450    -2.0720 ha         1 D01       0.125000
     34 H3          -4.5790     4.2170    -0.5520 ha         1 D01       0.132000
     35 H5          -5.2410     0.9860     2.2030 ha         1 D01       0.136000
     36 H7          -4.0090    -1.5760     1.2540 ha         1 D01       0.224000
     37 H91         -1.3040    -3.3710     1.3680 h1         1 D01       0.068450
     38 H92         -0.9050    -1.6460     1.4150 h1         1 D01       0.068450
     39 H101         1.0210    -3.9800     0.9720 h1         1 D01       0.073700
     40 H102         0.9030    -2.9750     2.4170 h1         1 D01       0.073700
     41 H13          2.5140     1.7350     1.2060 ha         1 D01       0.245000
     42 H16          7.2260     0.2430    -1.3050 ha         1 D01       0.140000
     43 H17          7.6650     2.6850    -1.6300 ha         1 D01       0.137000
     44 H18          6.0390     4.3610    -0.8160 h4         1 D01       0.171000
     45 H191         2.2870    -1.2720    -1.1450 h1         1 D01       0.073700
     46 H192         1.8680    -2.9820    -1.1250 h1         1 D01       0.073700
     47 H201         0.1120    -1.6850    -2.1940 h1         1 D01       0.068450
     48 H202        -0.0140    -0.5960    -0.8010 h1         1 D01       0.068450
@<TRIPOS>BOND
     1     1     2 1   
     2     1    10 1   
     3     1    32 1   
     4     2     3 ar  
     5     2     8 ar  
     6     3     4 ar  
     7     3    33 1   
     8     4     5 ar  
     9     4    34 1   
    10     5     6 1   
    11     5     7 ar  
    12     7     8 ar  
    13     7    35 1   
    14     8     9 1   
    15     9    10 2   
    16     9    36 1   
    17    10    11 1   
    18    11    12 2   
    19    11    13 2   
    20    11    14 1   
    21    14    15 1   
    22    14    31 1   
    23    15    16 1   
    24    15    37 1   
    25    15    38 1   
    26    16    17 1   
    27    16    39 1   
    28    16    40 1   
    29    17    18 1   
    30    17    30 1   
    31    18    19 2   
    32    18    20 1   
    33    20    21 2   
    34    20    24 1   
    35    21    22 1   
    36    21    41 1   
    37    22    23 ar  
    38    22    28 2   
    39    23    24 1   
    40    23    25 ar  
    41    25    26 ar  
    42    25    42 1   
    43    26    27 ar  
    44    26    43 1   
    45    27    28 1   
    46    27    44 1   
    47    28    29 1   
    48    30    31 1   
    49    30    45 1   
    50    30    46 1   
    51    31    47 1   
    52    31    48 1   
@<TRIPOS>SUBSTRUCTURE
     1 D01         1 TEMP              0 ****  ****    0 ROOT
