@<TRIPOS>MOLECULE
D01
   48    52     1     0     0
SMALL
No Charge or Current Charge


@<TRIPOS>ATOM
      1 N1          -3.2690    -0.3300    -1.5820 na         1 D01      -0.172700
      2 C1          -3.8650     0.7100    -0.8860 ca         1 D01      -0.019200
      3 C2          -4.1390     2.0060    -1.3460 ca         1 D01      -0.127000
      4 C3          -4.7580     2.9110    -0.4550 ca         1 D01      -0.062000
      5 C4          -5.0870     2.5060     0.8600 ca         1 D01       0.085000
      6 Cl1         -5.8570     3.6450     1.9580 cl         1 D01      -0.203000
      7 C5          -4.8000     1.1960     1.2970 ca         1 D01      -0.034000
      8 C6          -4.1850     0.3260     0.3860 ca         1 D01      -0.126800
      9 C7          -3.7760    -1.0380     0.5380 cc         1 D01      -0.097200
     10 C8          -3.2000    -1.4240    -0.6710 cd         1 D01      -0.295200
     11 S1          -2.5190    -3.0460    -1.0460 sy         1 D01       1.178200
     12 O1          -3.0980    -4.0640    -0.1620 o          1 D01      -0.530000
     13 O2          -2.4480    -3.2470    -2.4990 o          1 D01      -0.530000
     14 N2          -0.9130    -2.7930    -0.5120 n3         1 D01      -0.719500
     15 C9          -0.7580    -2.5810     0.9540 c6         1 D01       0.161800
     16 C10          0.7350    -2.6090     1.3660 c6         1 D01       0.094500
     17 N3           1.5540    -1.6210     0.6070 n          1 D01      -0.400800
     18 C11          2.1080    -0.4850     1.2440 c          1 D01       0.636300
     19 O3           1.6750    -0.1120     2.3270 o          1 D01      -0.562100
     20 C12          3.2460     0.2110     0.5810 cc         1 D01      -0.153600
     21 C13          3.7730     1.3970     1.0640 cd         1 D01      -0.078200
     22 C14          4.9840     1.8620     0.4200 ca         1 D01      -0.149100
     23 C15          5.3690     0.9470    -0.5500 ca         1 D01      -0.148000
     24 S2           4.2800    -0.4610    -0.7140 ss         1 D01       0.141400
     25 C16          6.5230     1.1530    -1.3250 ca         1 D01      -0.103000
     26 C17          7.2940     2.3100    -1.1000 ca         1 D01      -0.070000
     27 C18          6.8910     3.2320    -0.1110 ca         1 D01      -0.228000
     28 N4           5.7420     3.0150     0.6480 na         1 D01       0.502300
     29 O4           5.4030     3.8330     1.5140 o          1 D01      -0.497000
     30 C19          1.3550    -1.7310    -0.8700 c6         1 D01       0.094500
     31 C20         -0.1480    -1.7600    -1.2640 c6         1 D01       0.161800
     32 HN1         -2.9630    -0.3180    -2.5510 hn         1 D01       0.370000
     33 H2          -3.8830     2.3080    -2.3590 ha         1 D01       0.125000
     34 H3          -4.9840     3.9230    -0.7810 ha         1 D01       0.132000
     35 H5          -5.0470     0.8750     2.3060 ha         1 D01       0.136000
     36 H7          -3.8880    -1.6660     1.4210 ha         1 D01       0.224000
     37 H91         -1.2820    -3.3630     1.5230 h1         1 D01       0.068450
     38 H92         -1.1850    -1.6150     1.2580 h1         1 D01       0.068450
     39 H101         1.1330    -3.6150     1.1740 h1         1 D01       0.073700
     40 H102         0.8160    -2.4360     2.4480 h1         1 D01       0.073700
     41 H13          3.3230     1.9320     1.9000 ha         1 D01       0.245000
     42 H16          6.8180     0.4320    -2.0850 ha         1 D01       0.140000
     43 H17          8.1930     2.4910    -1.6880 ha         1 D01       0.137000
     44 H18          7.4550     4.1400     0.0970 h4         1 D01       0.171000
     45 H191         1.7950    -0.8760    -1.3960 h1         1 D01       0.073700
     46 H192         1.8460    -2.6450    -1.2340 h1         1 D01       0.073700
     47 H201        -0.2110    -1.9380    -2.3480 h1         1 D01       0.068450
     48 H202        -0.5690    -0.7610    -1.0780 h1         1 D01       0.068450
@<TRIPOS>BOND
     1     1     2 1   
     2     1    10 1   
     3     1    32 1   
     4     2     3 ar  
     5     2     8 ar  
     6     3     4 ar  
     7     3    33 1   
     8     4     5 ar  
     9     4    34 1   
    10     5     6 1   
    11     5     7 ar  
    12     7     8 ar  
    13     7    35 1   
    14     8     9 1   
    15     9    10 2   
    16     9    36 1   
    17    10    11 1   
    18    11    12 2   
    19    11    13 2   
    20    11    14 1   
    21    14    15 1   
    22    14    31 1   
    23    15    16 1   
    24    15    37 1   
    25    15    38 1   
    26    16    17 1   
    27    16    39 1   
    28    16    40 1   
    29    17    18 1   
    30    17    30 1   
    31    18    19 2   
    32    18    20 1   
    33    20    21 2   
    34    20    24 1   
    35    21    22 1   
    36    21    41 1   
    37    22    23 ar  
    38    22    28 2   
    39    23    24 1   
    40    23    25 ar  
    41    25    26 ar  
    42    25    42 1   
    43    26    27 ar  
    44    26    43 1   
    45    27    28 1   
    46    27    44 1   
    47    28    29 1   
    48    30    31 1   
    49    30    45 1   
    50    30    46 1   
    51    31    47 1   
    52    31    48 1   
@<TRIPOS>SUBSTRUCTURE
     1 D01         1 TEMP              0 ****  ****    0 ROOT
