@<TRIPOS>MOLECULE
D02
   29    30     1     0     0
SMALL
No Charge or Current Charge


@<TRIPOS>ATOM
      1 CAA          7.4670     0.3930     0.0190 c3         1 D02       0.149900
      2 NAB         -4.4790     0.9130     1.5750 n8         1 D02      -1.050100
      3 OAC          5.1720     1.2020     1.2660 o          1 D02      -0.490000
      4 OAD         -4.9620    -1.2290     0.5430 o          1 D02      -0.519500
      5 OAE         -4.8800     0.9290    -0.8100 o          1 D02      -0.519500
      6 CAJ          2.5590     0.3120     0.3760 cc         1 D02      -0.101000
      7 NAK          3.4990    -0.9110    -1.2690 nd         1 D02      -0.289000
      8 NAL          2.2080    -1.0930    -1.3920 nc         1 D02      -0.161800
      9 OAM          6.1520    -0.0280    -0.3930 os         1 D02      -0.405100
     10 CAN          5.0660     0.4420     0.3080 c          1 D02       0.539600
     11 CAO          3.7500    -0.0540    -0.1990 cd         1 D02       0.148500
     12 CAP         -0.4790    -1.4030     0.1650 ca         1 D02       0.138000
     13 CAQ         -0.3990     0.9290    -0.5060 ca         1 D02       0.138000
     14 CAR         -1.8790    -1.3170     0.3080 ca         1 D02       0.250500
     15 CAS         -1.7980     1.0180    -0.3660 ca         1 D02       0.250500
     16 CAT          0.2720    -0.2830    -0.2450 ca         1 D02      -0.006200
     17 CAU         -2.5540    -0.1050     0.0360 ca         1 D02      -0.301500
     18 NAV          1.6560    -0.3710    -0.3880 na         1 D02       0.189000
     19 SAW         -4.3280     0.0420     0.2090 sy         1 D02       1.175600
     20 HAA          7.6710     0.0850     1.0520 h1         1 D02       0.052367
     21 HAAA         8.2310    -0.0570    -0.6270 h1         1 D02       0.052367
     22 HAAB         7.5670     1.4840    -0.0460 h1         1 D02       0.052367
     23 HNAB        -5.1050     1.6460     1.2450 hn         1 D02       0.499000
     24 HNAA        -5.1180     0.3130     2.0950 hn         1 D02       0.499000
     25 HAJ          2.3070     0.9540     1.2090 h4         1 D02       0.192000
     26 FAF          0.1470    -2.5740     0.4390 f          1 D02      -0.126500
     27 FAG          0.3030     2.0200    -0.9000 f          1 D02      -0.126500
     28 FAH         -2.5470    -2.4210     0.7120 f          1 D02      -0.115000
     29 FAI         -2.3940     2.2080    -0.6130 f          1 D02      -0.115000
@<TRIPOS>BOND
     1     1     9 1   
     2     1    20 1   
     3     1    21 1   
     4     1    22 1   
     5     2    19 1   
     6     2    23 1   
     7     2    24 1   
     8     3    10 2   
     9     4    19 2   
    10     5    19 2   
    11     6    11 2   
    12     6    18 1   
    13     6    25 1   
    14     7     8 2   
    15     7    11 1   
    16     8    18 1   
    17     9    10 1   
    18    10    11 1   
    19    12    14 ar  
    20    12    16 ar  
    21    12    26 1   
    22    13    15 ar  
    23    13    16 ar  
    24    13    27 1   
    25    14    17 ar  
    26    14    28 1   
    27    15    17 ar  
    28    15    29 1   
    29    16    18 1   
    30    17    19 1   
@<TRIPOS>SUBSTRUCTURE
     1 D02         1 TEMP              0 ****  ****    0 ROOT
