@<TRIPOS>MOLECULE
D02
   29    30     1     0     0
SMALL
abcg2


@<TRIPOS>ATOM
      1 CAA          7.3780     0.2740    -0.0630 c3         1 D02       0.149900
      2 NAB         -4.5350     1.0040     1.3310 n8         1 D02      -1.050100
      3 OAC          5.2480     1.2000     1.2840 o          1 D02      -0.490000
      4 OAD         -4.8160    -1.3900     0.5060 o          1 D02      -0.519500
      5 OAE         -4.7760     0.5310    -1.1060 o          1 D02      -0.519500
      6 CAJ          2.5470     0.4270     0.4600 cc         1 D02      -0.101000
      7 NAK          3.4810    -0.7850    -1.1350 nd         1 D02      -0.289000
      8 NAL          2.2240    -0.9450    -1.2490 nc         1 D02      -0.161800
      9 OAM          6.0280    -0.0570    -0.4000 os         1 D02      -0.405100
     10 CAN          5.0750     0.4650     0.3440 c          1 D02       0.539600
     11 CAO          3.7380     0.0500    -0.0980 cd         1 D02       0.148500
     12 CAP         -0.4500    -1.3530     0.1460 ca         1 D02       0.138000
     13 CAQ         -0.4660     0.9770    -0.3760 ca         1 D02       0.138000
     14 CAR         -1.8310    -1.3450     0.2500 ca         1 D02       0.250500
     15 CAS         -1.8400     0.9860    -0.2690 ca         1 D02       0.250500
     16 CAT          0.2390    -0.1970    -0.1690 ca         1 D02      -0.006200
     17 CAU         -2.5420    -0.1710     0.0490 ca         1 D02      -0.301500
     18 NAV          1.6360    -0.2170    -0.2860 na         1 D02       0.189000
     19 SAW         -4.3330    -0.0800     0.1310 sy         1 D02       1.175600
     20 HAA          7.6280    -0.0660     0.9420 h1         1 D02       0.052367
     21 HAAA         7.9990    -0.2440    -0.7860 h1         1 D02       0.052367
     22 HAAB         7.5510     1.3470    -0.1370 h1         1 D02       0.052367
     23 HNAB        -5.2050     1.7340     1.1200 hn         1 D02       0.499000
     24 HNAA        -4.6650     0.5960     2.2500 hn         1 D02       0.499000
     25 HAJ          2.2970     1.0550     1.2980 h4         1 D02       0.192000
     26 FAF          0.2130    -2.4760     0.3610 f          1 D02      -0.126500
     27 FAG          0.1860     2.0880    -0.6780 f          1 D02      -0.126500
     28 FAH         -2.4200    -2.4860     0.5540 f          1 D02      -0.115000
     29 FAI         -2.4820     2.1240    -0.4710 f          1 D02      -0.115000
@<TRIPOS>BOND
     1     1     9 1   
     2     1    20 1   
     3     1    21 1   
     4     1    22 1   
     5     2    19 1   
     6     2    23 1   
     7     2    24 1   
     8     3    10 2   
     9     4    19 2   
    10     5    19 2   
    11     6    11 2   
    12     6    18 1   
    13     6    25 1   
    14     7     8 2   
    15     7    11 1   
    16     8    18 1   
    17     9    10 1   
    18    10    11 1   
    19    12    14 ar  
    20    12    16 ar  
    21    12    26 1   
    22    13    15 ar  
    23    13    16 ar  
    24    13    27 1   
    25    14    17 ar  
    26    14    28 1   
    27    15    17 ar  
    28    15    29 1   
    29    16    18 1   
    30    17    19 1   
@<TRIPOS>SUBSTRUCTURE
     1 D02         1 TEMP              0 ****  ****    0 ROOT
