@<TRIPOS>MOLECULE
D03
   78    81     1     0     0
SMALL
abcg2


@<TRIPOS>ATOM
      1 O01        -16.0010     1.7920   -22.6260 o          1 D03      -0.624100
      2 C02        -17.2300     1.9140   -22.5940 c          1 D03       0.601300
      3 C03        -17.9420     3.1400   -23.0100 ce         1 D03      -0.289200
      4 C05        -17.2790     4.1590   -23.5690 cf         1 D03      -0.077200
      5 C07        -17.8360     5.4120   -24.0670 ca         1 D03      -0.076800
      6 C16        -16.9720     6.3320   -24.6770 ca         1 D03      -0.086500
      7 C14        -17.4490     7.5370   -25.1780 ca         1 D03      -0.115500
      8 C12        -18.8010     7.8450   -25.0760 ca         1 D03      -0.096000
      9 C10        -19.6720     6.9410   -24.4680 ca         1 D03      -0.115500
     10 C08        -19.1970     5.7390   -23.9690 ca         1 D03      -0.086500
     11 N18        -18.0280     0.9020   -22.1740 ns         1 D03      -0.478900
     12 C20        -17.4900    -0.4190   -21.9370 c3         1 D03       0.047700
     13 C22        -18.5880    -1.3780   -21.4550 c3         1 D03      -0.048100
     14 C25        -19.1990    -0.9710   -20.1410 ca         1 D03      -0.077300
     15 C34        -18.4920    -1.1410   -18.9490 ca         1 D03      -0.106000
     16 C32        -19.0430    -0.7510   -17.7340 ca         1 D03      -0.108000
     17 C30        -20.3150    -0.1840   -17.6940 ca         1 D03      -0.109000
     18 C28        -21.0290    -0.0130   -18.8750 ca         1 D03      -0.108000
     19 C26        -20.4730    -0.4060   -20.0890 ca         1 D03      -0.106000
     20 C36        -16.8910    -0.9860   -23.2310 c          1 D03       0.590100
     21 O37        -17.4590    -0.8400   -24.3100 o          1 D03      -0.617100
     22 N38        -15.7530    -1.6810   -23.0660 ns         1 D03      -0.491900
     23 C40        -15.0320    -2.3040   -24.1580 c3         1 D03       0.115700
     24 C42        -13.7040    -1.5880   -24.4190 c3         1 D03      -0.067400
     25 C45        -13.8820    -0.1130   -24.7480 c5         1 D03      -0.156700
     26 C47        -12.5620     0.6410   -24.8760 c          1 D03       0.562000
     27 O48        -11.5570     0.4790   -24.1850 o          1 D03      -0.568000
     28 N49        -12.6980     1.5400   -25.8700 ns         1 D03      -0.515900
     29 C51        -14.0280     1.5750   -26.4700 c5         1 D03       0.101000
     30 C54        -14.6030     0.2100   -26.0650 c5         1 D03      -0.090400
     31 C57        -14.8110    -3.8090   -23.9080 c3         1 D03       0.072300
     32 O58        -14.4800    -4.3660   -25.1750 oh         1 D03      -0.661000
     33 C66        -16.0450    -4.4610   -23.2750 c          1 D03       0.570100
     34 O67        -16.1760    -4.5000   -22.0510 o          1 D03      -0.613100
     35 N68        -16.9410    -4.9530   -24.1400 ns         1 D03      -0.493900
     36 C70        -18.1630    -5.6230   -23.7180 c3         1 D03       0.154300
     37 C73        -19.3120    -4.6850   -23.4190 ca         1 D03      -0.111300
     38 C74        -19.7630    -3.7830   -24.3840 ca         1 D03      -0.091000
     39 C76        -19.9600    -4.7320   -22.1870 ca         1 D03      -0.091000
     40 C78        -21.0470    -3.9040   -21.9230 ca         1 D03      -0.111500
     41 C80        -21.4950    -3.0140   -22.8920 ca         1 D03      -0.114000
     42 C82        -20.8460    -2.9530   -24.1240 ca         1 D03      -0.111500
     43 H1         -19.0160     3.1600   -22.8750 ha         1 D03       0.179000
     44 H2         -16.2050     4.0460   -23.6820 ha         1 D03       0.194000
     45 H3         -15.9190     6.0910   -24.7580 ha         1 D03       0.114000
     46 H4         -16.7660     8.2340   -25.6480 ha         1 D03       0.115500
     47 H5         -19.1770     8.7830   -25.4650 ha         1 D03       0.115000
     48 H6         -20.7250     7.1780   -24.3850 ha         1 D03       0.115500
     49 H7         -19.8870     5.0490   -23.5000 ha         1 D03       0.114000
     50 H8         -19.0260     1.0000   -22.2760 hn         1 D03       0.321500
     51 H9         -16.7070    -0.3500   -21.1800 h1         1 D03       0.078700
     52 H10        -19.3580    -1.4380   -22.2240 hc         1 D03       0.075700
     53 H11        -18.1430    -2.3700   -21.3700 hc         1 D03       0.075700
     54 H12        -17.5040    -1.5860   -18.9750 ha         1 D03       0.110500
     55 H13        -18.4840    -0.8940   -16.8180 ha         1 D03       0.112500
     56 H14        -20.7460     0.1190   -16.7480 ha         1 D03       0.113000
     57 H15        -22.0200     0.4220   -18.8530 ha         1 D03       0.112500
     58 H16        -21.0350    -0.2790   -21.0070 ha         1 D03       0.110500
     59 H17        -15.3350    -1.7000   -22.1480 hn         1 D03       0.327500
     60 H18        -15.6780    -2.2210   -25.0320 h1         1 D03       0.093700
     61 H19        -13.1910    -2.0930   -25.2400 hc         1 D03       0.063700
     62 H20        -13.0710    -1.6850   -23.5320 hc         1 D03       0.063700
     63 H21        -14.4130     0.3760   -23.9230 hc         1 D03       0.102700
     64 H22        -11.9950     2.2420   -26.0460 hn         1 D03       0.324500
     65 H23        -13.9650     1.7070   -27.5490 h1         1 D03       0.044700
     66 H24        -14.6170     2.3980   -26.0540 h1         1 D03       0.044700
     67 H25        -15.6840     0.2300   -25.9610 hc         1 D03       0.064200
     68 H26        -14.3410    -0.5370   -26.8180 hc         1 D03       0.064200
     69 H27        -13.9930    -3.9470   -23.1950 h1         1 D03       0.067700
     70 H28        -14.0740    -5.2320   -25.0390 ho         1 D03       0.454000
     71 H29        -16.7140    -4.9080   -25.1210 hn         1 D03       0.331500
     72 H30        -18.4430    -6.3070   -24.5190 h1         1 D03       0.058700
     73 H31        -17.9410    -6.2190   -22.8330 h1         1 D03       0.058700
     74 H32        -19.2600    -3.7290   -25.3420 ha         1 D03       0.116000
     75 H33        -19.6080    -5.4200   -21.4270 ha         1 D03       0.116000
     76 H34        -21.5340    -3.9450   -20.9570 ha         1 D03       0.116000
     77 H35        -22.3340    -2.3620   -22.6870 ha         1 D03       0.110000
     78 H36        -21.1840    -2.2560   -24.8810 ha         1 D03       0.116000
@<TRIPOS>BOND
     1     1     2 2   
     2     2     3 1   
     3     2    11 1   
     4     3     4 2   
     5     3    43 1   
     6     4     5 1   
     7     4    44 1   
     8     5     6 ar  
     9     5    10 ar  
    10     6     7 ar  
    11     6    45 1   
    12     7     8 ar  
    13     7    46 1   
    14     8     9 ar  
    15     8    47 1   
    16     9    10 ar  
    17     9    48 1   
    18    10    49 1   
    19    11    12 1   
    20    11    50 1   
    21    12    13 1   
    22    12    20 1   
    23    12    51 1   
    24    13    14 1   
    25    13    52 1   
    26    13    53 1   
    27    14    15 ar  
    28    14    19 ar  
    29    15    16 ar  
    30    15    54 1   
    31    16    17 ar  
    32    16    55 1   
    33    17    18 ar  
    34    17    56 1   
    35    18    19 ar  
    36    18    57 1   
    37    19    58 1   
    38    20    21 2   
    39    20    22 1   
    40    22    23 1   
    41    22    59 1   
    42    23    24 1   
    43    23    31 1   
    44    23    60 1   
    45    24    25 1   
    46    24    61 1   
    47    24    62 1   
    48    25    26 1   
    49    25    30 1   
    50    25    63 1   
    51    26    27 2   
    52    26    28 1   
    53    28    29 1   
    54    28    64 1   
    55    29    30 1   
    56    29    65 1   
    57    29    66 1   
    58    30    67 1   
    59    30    68 1   
    60    31    32 1   
    61    31    33 1   
    62    31    69 1   
    63    32    70 1   
    64    33    34 2   
    65    33    35 1   
    66    35    36 1   
    67    35    71 1   
    68    36    37 1   
    69    36    72 1   
    70    36    73 1   
    71    37    38 ar  
    72    37    39 ar  
    73    38    42 ar  
    74    38    74 1   
    75    39    40 ar  
    76    39    75 1   
    77    40    41 ar  
    78    40    76 1   
    79    41    42 ar  
    80    41    77 1   
    81    42    78 1   
@<TRIPOS>SUBSTRUCTURE
     1 D03         1 TEMP              0 ****  ****    0 ROOT
