@<TRIPOS>MOLECULE
D03
   78    81     1     0     0
SMALL
No Charge or Current Charge


@<TRIPOS>ATOM
      1 O01        -16.9260     2.5610   -21.7220 o          1 D03      -0.624100
      2 C02        -17.7590     2.0720   -22.4710 c          1 D03       0.601300
      3 C03        -18.8910     2.8470   -23.0440 ce         1 D03      -0.289200
      4 C05        -19.1350     4.1660   -22.7860 cf         1 D03      -0.077200
      5 C07        -20.2210     5.0330   -23.2870 ca         1 D03      -0.076800
      6 C16        -20.2670     6.3850   -22.8860 ca         1 D03      -0.086500
      7 C14        -21.2890     7.2340   -23.3460 ca         1 D03      -0.115500
      8 C12        -22.2770     6.7410   -24.2130 ca         1 D03      -0.096000
      9 C10        -22.2410     5.3980   -24.6190 ca         1 D03      -0.115500
     10 C08        -21.2200     4.5470   -24.1590 ca         1 D03      -0.086500
     11 N18        -17.7260     0.7580   -22.8680 ns         1 D03      -0.478900
     12 C20        -16.7630    -0.2590   -22.3910 c3         1 D03       0.047700
     13 C22        -17.3730    -1.1030   -21.2380 c3         1 D03      -0.048100
     14 C25        -17.7690    -0.2680   -20.0240 ca         1 D03      -0.077300
     15 C34        -16.8150     0.0290   -19.0300 ca         1 D03      -0.106000
     16 C32        -17.1750     0.7990   -17.9100 ca         1 D03      -0.108000
     17 C30        -18.4890     1.2770   -17.7770 ca         1 D03      -0.109000
     18 C28        -19.4440     0.9860   -18.7650 ca         1 D03      -0.108000
     19 C26        -19.0850     0.2140   -19.8840 ca         1 D03      -0.106000
     20 C36        -16.2810    -1.1400   -23.5810 c          1 D03       0.590100
     21 O37        -16.6870    -0.9970   -24.7270 o          1 D03      -0.617100
     22 N38        -15.3480    -2.1080   -23.2640 ns         1 D03      -0.491900
     23 C40        -14.8210    -3.1030   -24.2100 c3         1 D03       0.115700
     24 C42        -13.2700    -3.0870   -24.2010 c3         1 D03      -0.067400
     25 C45        -12.6220    -1.7040   -24.4970 c5         1 D03      -0.156700
     26 C47        -11.0880    -1.7350   -24.5340 c          1 D03       0.562000
     27 O48        -10.3130    -2.5370   -24.0410 o          1 D03      -0.568000
     28 N49        -10.7170    -0.8130   -25.4740 ns         1 D03      -0.515900
     29 C51        -11.8240    -0.0720   -26.0730 c5         1 D03       0.101000
     30 C54        -12.9830    -1.0860   -25.8770 c5         1 D03      -0.090400
     31 C57        -15.4150    -4.5190   -23.9450 c3         1 D03       0.072300
     32 O58        -15.1070    -5.4030   -25.0580 oh         1 D03      -0.661000
     33 C66        -16.9440    -4.4690   -23.6320 c          1 D03       0.570100
     34 O67        -17.3910    -4.5770   -22.4970 o          1 D03      -0.613100
     35 N68        -17.7660    -4.3740   -24.7330 ns         1 D03      -0.493900
     36 C70        -19.2280    -4.3770   -24.6890 c3         1 D03       0.154300
     37 C73        -19.8080    -3.0320   -24.2650 ca         1 D03      -0.111300
     38 C74        -19.7300    -1.9190   -25.1250 ca         1 D03      -0.091000
     39 C76        -20.4510    -2.8960   -23.0190 ca         1 D03      -0.091000
     40 C78        -21.0090    -1.6630   -22.6390 ca         1 D03      -0.111500
     41 C80        -20.9230    -0.5550   -23.4980 ca         1 D03      -0.114000
     42 C82        -20.2820    -0.6840   -24.7420 ca         1 D03      -0.111500
     43 H1         -19.5520     2.2970   -23.7060 ha         1 D03       0.179000
     44 H2         -18.4400     4.6730   -22.1120 ha         1 D03       0.194000
     45 H3         -19.5090     6.7830   -22.2140 ha         1 D03       0.114000
     46 H4         -21.3130     8.2750   -23.0290 ha         1 D03       0.115500
     47 H5         -23.0680     7.3990   -24.5690 ha         1 D03       0.115000
     48 H6         -23.0060     5.0140   -25.2900 ha         1 D03       0.115500
     49 H7         -21.2170     3.5120   -24.4890 ha         1 D03       0.114000
     50 H8         -18.4370     0.4610   -23.5240 hn         1 D03       0.321500
     51 H9         -15.8690     0.2500   -22.0080 h1         1 D03       0.078700
     52 H10        -18.2430    -1.6490   -21.6210 hc         1 D03       0.075700
     53 H11        -16.6590    -1.8730   -20.9240 hc         1 D03       0.075700
     54 H12        -15.7950    -0.3340   -19.1260 ha         1 D03       0.110500
     55 H13        -16.4340     1.0250   -17.1460 ha         1 D03       0.112500
     56 H14        -18.7660     1.8740   -16.9100 ha         1 D03       0.113000
     57 H15        -20.4610     1.3580   -18.6650 ha         1 D03       0.112500
     58 H16        -19.8290     0.0000   -20.6460 ha         1 D03       0.110500
     59 H17        -15.0360    -2.1490   -22.3010 hn         1 D03       0.327500
     60 H18        -15.1390    -2.8160   -25.2220 h1         1 D03       0.093700
     61 H19        -12.9080    -3.8160   -24.9380 hc         1 D03       0.063700
     62 H20        -12.9230    -3.4480   -23.2250 hc         1 D03       0.063700
     63 H21        -12.9000    -0.9870   -23.7160 hc         1 D03       0.102700
     64 H22         -9.7370    -0.7280   -25.7190 hn         1 D03       0.324500
     65 H23        -11.6570     0.1640   -27.1330 h1         1 D03       0.044700
     66 H24        -12.0140     0.8660   -25.5340 h1         1 D03       0.044700
     67 H25        -13.9690    -0.6070   -25.8940 hc         1 D03       0.064200
     68 H26        -12.9700    -1.8440   -26.6690 hc         1 D03       0.064200
     69 H27        -14.9440    -4.9040   -23.0310 h1         1 D03       0.067700
     70 H28        -15.3490    -6.3200   -24.7900 ho         1 D03       0.454000
     71 H29        -17.3050    -4.3270   -25.6350 hn         1 D03       0.331500
     72 H30        -19.6060    -4.6320   -25.6870 h1         1 D03       0.058700
     73 H31        -19.5620    -5.1650   -24.0000 h1         1 D03       0.058700
     74 H32        -19.2380    -2.0110   -26.0910 ha         1 D03       0.116000
     75 H33        -20.5220    -3.7470   -22.3440 ha         1 D03       0.116000
     76 H34        -21.5100    -1.5680   -21.6780 ha         1 D03       0.116000
     77 H35        -21.3580     0.3970   -23.2030 ha         1 D03       0.110000
     78 H36        -20.2200     0.1690   -25.4150 ha         1 D03       0.116000
@<TRIPOS>BOND
     1     1     2 2   
     2     2     3 1   
     3     2    11 1   
     4     3     4 2   
     5     3    43 1   
     6     4     5 1   
     7     4    44 1   
     8     5     6 ar  
     9     5    10 ar  
    10     6     7 ar  
    11     6    45 1   
    12     7     8 ar  
    13     7    46 1   
    14     8     9 ar  
    15     8    47 1   
    16     9    10 ar  
    17     9    48 1   
    18    10    49 1   
    19    11    12 1   
    20    11    50 1   
    21    12    13 1   
    22    12    20 1   
    23    12    51 1   
    24    13    14 1   
    25    13    52 1   
    26    13    53 1   
    27    14    15 ar  
    28    14    19 ar  
    29    15    16 ar  
    30    15    54 1   
    31    16    17 ar  
    32    16    55 1   
    33    17    18 ar  
    34    17    56 1   
    35    18    19 ar  
    36    18    57 1   
    37    19    58 1   
    38    20    21 2   
    39    20    22 1   
    40    22    23 1   
    41    22    59 1   
    42    23    24 1   
    43    23    31 1   
    44    23    60 1   
    45    24    25 1   
    46    24    61 1   
    47    24    62 1   
    48    25    26 1   
    49    25    30 1   
    50    25    63 1   
    51    26    27 2   
    52    26    28 1   
    53    28    29 1   
    54    28    64 1   
    55    29    30 1   
    56    29    65 1   
    57    29    66 1   
    58    30    67 1   
    59    30    68 1   
    60    31    32 1   
    61    31    33 1   
    62    31    69 1   
    63    32    70 1   
    64    33    34 2   
    65    33    35 1   
    66    35    36 1   
    67    35    71 1   
    68    36    37 1   
    69    36    72 1   
    70    36    73 1   
    71    37    38 ar  
    72    37    39 ar  
    73    38    42 ar  
    74    38    74 1   
    75    39    40 ar  
    76    39    75 1   
    77    40    41 ar  
    78    40    76 1   
    79    41    42 ar  
    80    41    77 1   
    81    42    78 1   
@<TRIPOS>SUBSTRUCTURE
     1 D03         1 TEMP              0 ****  ****    0 ROOT
