@<TRIPOS>MOLECULE
D04
   39    41     1     0     0
SMALL
No Charge or Current Charge


@<TRIPOS>ATOM
      1 NAA          4.6240     1.8450    -1.0970 n8         1 D04      -1.042100
      2 OAB          5.1820    -0.4660    -1.5470 o          1 D04      -0.520500
      3 OAC          5.4650     0.5470     0.7740 o          1 D04      -0.520500
      4 CAH         -2.1630    -0.0530     0.1650 cc         1 D04      -0.179000
      5 CAI         -6.8350     1.4380    -0.6630 c6         1 D04      -0.076400
      6 CAJ         -6.5010     1.3580     0.8480 c6         1 D04      -0.073900
      7 CAK         -6.5080     0.1050    -1.3800 c6         1 D04      -0.073900
      8 CAL         -5.0250     0.9480     1.0750 c6         1 D04      -0.070900
      9 CAM         -5.0310    -0.3050    -1.1530 c6         1 D04      -0.070900
     10 NAN         -2.8190    -1.9390     1.2120 nd         1 D04      -0.346000
     11 NAO         -1.5110    -1.9740     1.2170 nc         1 D04      -0.161800
     12 CAP          0.7320    -0.5650    -0.9420 ca         1 D04       0.132000
     13 CAQ          1.0850    -0.2510     1.4400 ca         1 D04       0.132000
     14 CAR          2.0930    -0.2890    -1.1800 ca         1 D04       0.250500
     15 CAS          2.4460     0.0270     1.2050 ca         1 D04       0.250500
     16 CAT         -3.2460    -0.7830     0.5760 cd         1 D04       0.226300
     17 CAU          0.2180    -0.5520     0.3700 ca         1 D04       0.007800
     18 CAV          2.9670     0.0040    -0.1100 ca         1 D04      -0.307500
     19 CAW         -4.6950    -0.3930     0.3620 c6         1 D04      -0.082000
     20 NAX         -1.1280    -0.8270     0.6040 na         1 D04       0.188000
     21 SAY          4.6870     0.3540    -0.4450 sy         1 D04       1.170600
     22 HNAA         5.3000     2.3240    -0.5060 hn         1 D04       0.494500
     23 HNAB         5.1630     1.6880    -1.9460 hn         1 D04       0.494500
     24 HAH         -2.0580     0.8840    -0.3620 h4         1 D04       0.175000
     25 HAI         -7.8980     1.6830    -0.7970 hc         1 D04       0.039700
     26 HAIA        -6.2650     2.2560    -1.1250 hc         1 D04       0.039700
     27 HAJ         -6.6960     2.3290     1.3240 hc         1 D04       0.041200
     28 HAJA        -7.1670     0.6330     1.3360 hc         1 D04       0.041200
     29 HAK         -7.1730    -0.6870    -1.0100 hc         1 D04       0.041200
     30 HAKA        -6.7060     0.2020    -2.4560 hc         1 D04       0.041200
     31 HAL         -4.3640     1.7450     0.7040 hc         1 D04       0.044200
     32 HALA        -4.8290     0.8570     2.1520 hc         1 D04       0.044200
     33 HAM         -4.8390    -1.2740    -1.6350 hc         1 D04       0.044200
     34 HAMA        -4.3710     0.4230    -1.6450 hc         1 D04       0.044200
     35 HAW         -5.3300    -1.1740     0.8030 hc         1 D04       0.069700
     36 FAD         -0.0830    -0.8490    -1.9870 f          1 D04      -0.128500
     37 FAE          0.6080    -0.2150     2.7080 f          1 D04      -0.128500
     38 FAF          2.5370    -0.2980    -2.4590 f          1 D04      -0.116500
     39 FAG          3.2300     0.3160     2.2680 f          1 D04      -0.116500
@<TRIPOS>BOND
     1     1    21 1   
     2     1    22 1   
     3     1    23 1   
     4     2    21 2   
     5     3    21 2   
     6     4    16 2   
     7     4    20 1   
     8     4    24 1   
     9     5     6 1   
    10     5     7 1   
    11     5    25 1   
    12     5    26 1   
    13     6     8 1   
    14     6    27 1   
    15     6    28 1   
    16     7     9 1   
    17     7    29 1   
    18     7    30 1   
    19     8    19 1   
    20     8    31 1   
    21     8    32 1   
    22     9    19 1   
    23     9    33 1   
    24     9    34 1   
    25    10    11 2   
    26    10    16 1   
    27    11    20 1   
    28    12    14 ar  
    29    12    17 ar  
    30    12    36 1   
    31    13    15 ar  
    32    13    17 ar  
    33    13    37 1   
    34    14    18 ar  
    35    14    38 1   
    36    15    18 ar  
    37    15    39 1   
    38    16    19 1   
    39    17    20 1   
    40    18    21 1   
    41    19    35 1   
@<TRIPOS>SUBSTRUCTURE
     1 D04         1 TEMP              0 ****  ****    0 ROOT
