@<TRIPOS>MOLECULE
D04
   39    41     1     0     0
SMALL
bcc


@<TRIPOS>ATOM
      1 NAA          4.8270     1.0790    -1.6800 n8         1 D04      -0.931700
      2 OAB          5.2630    -1.2030    -0.7820 o          1 D04      -0.591300
      3 OAC          5.4470     0.7440     0.7810 o          1 D04      -0.591300
      4 CAH         -2.0840     0.0140    -0.1460 cc         1 D04      -0.211600
      5 CAI         -7.0760     1.2980    -0.3640 c6         1 D04      -0.076400
      6 CAJ         -6.8760     0.5600     0.9550 c6         1 D04      -0.073900
      7 CAK         -6.3150     0.6160    -1.4960 c6         1 D04      -0.073900
      8 CAL         -5.3970     0.4020     1.2920 c6         1 D04      -0.070900
      9 CAM         -4.8360     0.4610    -1.1590 c6         1 D04      -0.070900
     10 NAN         -2.7750    -1.1880     1.5590 nd         1 D04      -0.346000
     11 NAO         -1.4990    -1.1790     1.6250 nc         1 D04      -0.161800
     12 CAP          0.9020    -0.7460    -0.7860 ca         1 D04       0.096900
     13 CAQ          1.1160     0.3120     1.3410 ca         1 D04       0.096900
     14 CAR          2.2560    -0.5950    -0.9940 ca         1 D04       0.215400
     15 CAS          2.4800     0.4540     1.1380 ca         1 D04       0.215400
     16 CAT         -3.1970    -0.4670     0.4860 cd         1 D04       0.291600
     17 CAU          0.3190    -0.2920     0.3860 ca         1 D04       0.007800
     18 CAV          3.0660     0.0040    -0.0360 ca         1 D04      -0.307500
     19 CAW         -4.6410    -0.2950     0.1540 c6         1 D04      -0.082000
     20 NAX         -1.0550    -0.4510     0.6000 na         1 D04       0.137300
     21 SAY          4.8250     0.1130    -0.3630 sy         1 D04       1.312200
     22 HNAA         4.8870     2.0690    -1.4710 hn         1 D04       0.439300
     23 HNAB         5.4860     0.7880    -2.3930 hn         1 D04       0.439300
     24 HAH         -1.9420     0.6380    -1.0110 h4         1 D04       0.193000
     25 HAI         -8.1390     1.3590    -0.6070 hc         1 D04       0.039700
     26 HAIA        -6.7210     2.3290    -0.2600 hc         1 D04       0.039700
     27 HAJ         -7.3870     1.0850     1.7660 hc         1 D04       0.041200
     28 HAJA        -7.3380    -0.4310     0.8870 hc         1 D04       0.041200
     29 HAK         -6.7500    -0.3730    -1.6830 hc         1 D04       0.041200
     30 HAKA        -6.4240     1.1820    -2.4240 hc         1 D04       0.041200
     31 HAL         -4.9510     1.3890     1.4620 hc         1 D04       0.044200
     32 HALA        -5.2800    -0.1620     2.2200 hc         1 D04       0.044200
     33 HAM         -4.3180    -0.0550    -1.9720 hc         1 D04       0.044200
     34 HAMA        -4.3820     1.4540    -1.0720 hc         1 D04       0.044200
     35 HAW         -5.0720    -1.2980     0.0350 hc         1 D04       0.069700
     36 FAD          0.1550    -1.3300    -1.7100 f          1 D04      -0.093400
     37 FAE          0.5780     0.7730     2.4570 f          1 D04      -0.093400
     38 FAF          2.7710    -1.0330    -2.1300 f          1 D04      -0.081400
     39 FAG          3.1730     1.0450     2.0940 f          1 D04      -0.081400
@<TRIPOS>BOND
     1     1    21 1   
     2     1    22 1   
     3     1    23 1   
     4     2    21 2   
     5     3    21 2   
     6     4    16 2   
     7     4    20 1   
     8     4    24 1   
     9     5     6 1   
    10     5     7 1   
    11     5    25 1   
    12     5    26 1   
    13     6     8 1   
    14     6    27 1   
    15     6    28 1   
    16     7     9 1   
    17     7    29 1   
    18     7    30 1   
    19     8    19 1   
    20     8    31 1   
    21     8    32 1   
    22     9    19 1   
    23     9    33 1   
    24     9    34 1   
    25    10    11 2   
    26    10    16 1   
    27    11    20 1   
    28    12    14 ar  
    29    12    17 ar  
    30    12    36 1   
    31    13    15 ar  
    32    13    17 ar  
    33    13    37 1   
    34    14    18 ar  
    35    14    38 1   
    36    15    18 ar  
    37    15    39 1   
    38    16    19 1   
    39    17    20 1   
    40    18    21 1   
    41    19    35 1   
@<TRIPOS>SUBSTRUCTURE
     1 D04         1 TEMP              0 ****  ****    0 ROOT
