@<TRIPOS>MOLECULE
D05
   45    48     1     0     0
SMALL
No Charge or Current Charge


@<TRIPOS>ATOM
      1 N8           1.2490    -2.2820    -0.2940 ns         1 D05      -0.434400
      2 C7           0.2160    -1.8220     0.4900 cc         1 D05       0.523900
      3 N6           0.1500    -0.5960     1.0170 nd         1 D05      -0.616100
      4 C5           1.2460     0.2000     0.6940 cd         1 D05       0.166400
      5 C4           2.2710    -0.2230    -0.0740 cc         1 D05      -0.326600
      6 C9           2.3370    -1.5560    -0.6420 c          1 D05       0.620600
      7 N1           1.5780     1.5120     1.0180 na         1 D05       0.215000
      8 N2           2.7810     1.9470     0.4890 nd         1 D05      -0.483800
      9 C3           3.1750     0.8650    -0.1700 cc         1 D05       0.341300
     10 O9           3.2270    -2.0050    -1.3430 o          1 D05      -0.532000
     11 C11          0.6910     2.2240     1.8200 ca         1 D05       0.030800
     12 C16         -0.3710     2.9500     1.2380 ca         1 D05       0.149500
     13 C12          0.8360     2.2170     3.2240 ca         1 D05       0.149500
     14 C15         -1.2700     3.6610     2.0500 ca         1 D05      -0.098500
     15 C13         -0.0660     2.9290     4.0320 ca         1 D05      -0.098500
     16 C14         -1.1160     3.6500     3.4440 ca         1 D05       0.137000
     17 Cl14        -2.2440     4.5400     4.4580 cl         1 D05      -0.178000
     18 C1           4.4750     0.8270    -0.9310 c3         1 D05      -0.108700
     19 C2           5.6250     0.1730    -0.1370 c3         1 D05      -0.086100
     20 C20         -0.8820    -2.8280     0.7090 c3         1 D05      -0.065400
     21 Cl16        -0.6030     2.9830    -0.5130 cl         1 D05      -0.153000
     22 Cl12         2.1410     1.3160     4.0020 cl         1 D05      -0.153000
     23 C21         -1.6240    -3.1960    -0.5720 ca         1 D05      -0.070300
     24 C22         -2.4400    -2.2410    -1.2110 ca         1 D05      -0.091000
     25 C23         -3.1180    -2.5720    -2.3950 ca         1 D05       0.121100
     26 C24         -2.9860    -3.8600    -2.9520 ca         1 D05       0.053100
     27 C25         -2.1740    -4.8150    -2.3180 ca         1 D05      -0.160000
     28 C26         -1.4950    -4.4830    -1.1320 ca         1 D05      -0.095000
     29 O23         -3.9080    -1.6490    -3.0170 oh         1 D05      -0.535100
     30 O24         -3.6490    -4.1790    -4.1080 oh         1 D05      -0.556100
     31 HN8          1.2070    -3.2210    -0.6580 hn         1 D05       0.327500
     32 H15         -2.0860     4.2180     1.5990 ha         1 D05       0.152000
     33 H13          0.0490     2.9210     5.1120 ha         1 D05       0.152000
     34 H11          4.7720     1.8500    -1.1960 hc         1 D05       0.061700
     35 H12          4.3400     0.3010    -1.8830 hc         1 D05       0.061700
     36 H21          5.8130     0.7230     0.7930 hc         1 D05       0.040033
     37 H22A         5.3810    -0.8650     0.1200 hc         1 D05       0.040033
     38 H23A         6.5480     0.1730    -0.7290 hc         1 D05       0.040033
     39 H201        -0.4580    -3.7220     1.1810 hc         1 D05       0.070200
     40 H202        -1.5980    -2.4300     1.4390 hc         1 D05       0.070200
     41 H22         -2.5480    -1.2440    -0.7910 ha         1 D05       0.133000
     42 H25         -2.0640    -5.8130    -2.7370 ha         1 D05       0.115000
     43 H26         -0.8690    -5.2310    -0.6480 ha         1 D05       0.114000
     44 H23         -4.2730    -2.1000    -3.8120 ho         1 D05       0.481000
     45 H24         -3.4420    -5.1100    -4.3460 ho         1 D05       0.475000
@<TRIPOS>BOND
     1     1     2 1   
     2     1     6 1   
     3     1    31 1   
     4     2     3 2   
     5     2    20 1   
     6     3     4 1   
     7     4     5 2   
     8     4     7 1   
     9     5     6 1   
    10     5     9 1   
    11     6    10 2   
    12     7     8 1   
    13     7    11 1   
    14     8     9 2   
    15     9    18 1   
    16    11    12 ar  
    17    11    13 ar  
    18    12    14 ar  
    19    12    21 1   
    20    13    15 ar  
    21    13    22 1   
    22    14    16 ar  
    23    14    32 1   
    24    15    16 ar  
    25    15    33 1   
    26    16    17 1   
    27    18    19 1   
    28    18    34 1   
    29    18    35 1   
    30    19    36 1   
    31    19    37 1   
    32    19    38 1   
    33    20    23 1   
    34    20    39 1   
    35    20    40 1   
    36    23    24 ar  
    37    23    28 ar  
    38    24    25 ar  
    39    24    41 1   
    40    25    26 ar  
    41    25    29 1   
    42    26    27 ar  
    43    26    30 1   
    44    27    28 ar  
    45    27    42 1   
    46    28    43 1   
    47    29    44 1   
    48    30    45 1   
@<TRIPOS>SUBSTRUCTURE
     1 D05         1 TEMP              0 ****  ****    0 ROOT
