@<TRIPOS>MOLECULE
D05
   45    48     1     0     0
SMALL
abcg2


@<TRIPOS>ATOM
      1 N8           2.4550    -2.8480    -0.4910 ns         1 D05      -0.434400
      2 C7           1.1410    -2.4970    -0.4890 cc         1 D05       0.523900
      3 N6           0.7340    -1.2850    -0.3010 nd         1 D05      -0.616100
      4 C5           1.7280    -0.4130    -0.0710 cd         1 D05       0.166400
      5 C4           3.0890    -0.6520    -0.0440 cc         1 D05      -0.326600
      6 C9           3.5410    -1.9870    -0.2890 c          1 D05       0.620600
      7 N1           1.5620     0.8950     0.1970 na         1 D05       0.215000
      8 N2           2.7490     1.5180     0.3940 nd         1 D05      -0.483800
      9 C3           3.6800     0.6060     0.2520 cc         1 D05       0.341300
     10 O9           4.6850    -2.4030    -0.3260 o          1 D05      -0.532000
     11 C11          0.3340     1.5610     0.3020 ca         1 D05       0.030800
     12 C16         -0.0650     2.4790    -0.6640 ca         1 D05       0.149500
     13 C12         -0.5390     1.2800     1.3510 ca         1 D05       0.149500
     14 C15         -1.2910     3.1170    -0.5910 ca         1 D05      -0.098500
     15 C13         -1.7810     1.8850     1.4350 ca         1 D05      -0.098500
     16 C14         -2.1350     2.8030     0.4620 ca         1 D05       0.137000
     17 CL14        -3.6740     3.5740     0.5580 cl         1 D05      -0.178000
     18 C1           5.1250     0.9240     0.4290 c3         1 D05      -0.108700
     19 C2           5.6840     0.3570     1.7320 c3         1 D05      -0.086100
     20 C20          0.1500    -3.6100    -0.6850 c3         1 D05      -0.065400
     21 CL16         0.9720     2.8070    -1.9940 cl         1 D05      -0.153000
     22 CL12        -0.0720     0.1690     2.5730 cl         1 D05      -0.153000
     23 C21         -1.2690    -3.1230    -0.7270 ca         1 D05      -0.070300
     24 C22         -1.8750    -2.6370     0.4300 ca         1 D05      -0.091000
     25 C23         -3.1580    -2.1240     0.4040 ca         1 D05       0.121100
     26 C24         -3.8700    -2.1120    -0.8040 ca         1 D05       0.053100
     27 C25         -3.2780    -2.6070    -1.9520 ca         1 D05      -0.160000
     28 C26         -1.9800    -3.1070    -1.9150 ca         1 D05      -0.095000
     29 O23         -3.6980    -1.6450     1.5460 oh         1 D05      -0.535100
     30 O24         -5.1230    -1.6000    -0.7540 oh         1 D05      -0.556100
     31 HN8          2.6850    -3.8200    -0.6560 hn         1 D05       0.327500
     32 H15         -1.5850     3.8290    -1.3490 ha         1 D05       0.152000
     33 H13         -2.4510     1.6510     2.2490 ha         1 D05       0.152000
     34 H11          5.2500     2.0080     0.4080 hc         1 D05       0.061700
     35 H12          5.6860     0.5210    -0.4160 hc         1 D05       0.061700
     36 H21          5.1640     0.7700     2.5950 hc         1 D05       0.040033
     37 H22A         5.5860    -0.7280     1.7640 hc         1 D05       0.040033
     38 H23A         6.7420     0.5970     1.8290 hc         1 D05       0.040033
     39 H201         0.4030    -4.1460    -1.6030 hc         1 D05       0.070200
     40 H202         0.2960    -4.3260     0.1310 hc         1 D05       0.070200
     41 H22         -1.3290    -2.6250     1.3670 ha         1 D05       0.133000
     42 H25         -3.8290    -2.5990    -2.8860 ha         1 D05       0.115000
     43 H26         -1.5290    -3.4770    -2.8270 ha         1 D05       0.114000
     44 H23         -4.5720    -1.2770     1.3750 ho         1 D05       0.481000
     45 H24         -5.5130    -1.5650    -1.6330 ho         1 D05       0.475000
@<TRIPOS>BOND
     1     1     2 1   
     2     1     6 1   
     3     1    31 1   
     4     2     3 2   
     5     2    20 1   
     6     3     4 1   
     7     4     5 2   
     8     4     7 1   
     9     5     6 1   
    10     5     9 1   
    11     6    10 2   
    12     7     8 1   
    13     7    11 1   
    14     8     9 2   
    15     9    18 1   
    16    11    12 ar  
    17    11    13 ar  
    18    12    14 ar  
    19    12    21 1   
    20    13    15 ar  
    21    13    22 1   
    22    14    16 ar  
    23    14    32 1   
    24    15    16 ar  
    25    15    33 1   
    26    16    17 1   
    27    18    19 1   
    28    18    34 1   
    29    18    35 1   
    30    19    36 1   
    31    19    37 1   
    32    19    38 1   
    33    20    23 1   
    34    20    39 1   
    35    20    40 1   
    36    23    24 ar  
    37    23    28 ar  
    38    24    25 ar  
    39    24    41 1   
    40    25    26 ar  
    41    25    29 1   
    42    26    27 ar  
    43    26    30 1   
    44    27    28 ar  
    45    27    42 1   
    46    28    43 1   
    47    29    44 1   
    48    30    45 1   
@<TRIPOS>SUBSTRUCTURE
     1 D05         1 TEMP              0 ****  ****    0 ROOT
