@<TRIPOS>MOLECULE
D06
   53    56     1     0     0
SMALL
No Charge or Current Charge


@<TRIPOS>ATOM
      1 C2         -43.4340    15.5170    14.7350 c3         1 D06       0.097500
      2 C4         -43.8600    17.0220    14.5950 c6         1 D06      -0.057700
      3 C6         -43.1890    17.9330    15.6670 c6         1 D06      -0.072900
      4 C7         -43.6110    19.4160    15.5160 c6         1 D06      -0.072900
      5 C8         -45.1560    19.6020    15.5860 c6         1 D06       0.186500
      6 C11        -45.4050    17.2020    14.6740 c6         1 D06      -0.072900
      7 C15        -47.0230    22.8760    15.3460 c5         1 D06      -0.080400
      8 C16        -46.9970    21.3310    15.4770 c5         1 D06       0.158800
      9 C17        -44.2370    14.5710    13.7470 c          1 D06       0.602100
     10 C21        -46.5290    12.4140    15.6710 ca         1 D06      -0.102300
     11 C23        -48.2110    10.8870    16.5120 ca         1 D06      -0.106500
     12 C24        -48.4340    10.4240    15.1980 ca         1 D06      -0.106500
     13 C27        -45.8680    12.6590    13.3830 c5         1 D06       0.154300
     14 N1         -41.9430    15.3500    14.6620 n8         1 D06      -0.973200
     15 C10        -45.8260    18.6850    14.5200 c6         1 D06      -0.072900
     16 N12        -45.5470    21.0340    15.4010 n3         1 D06      -0.715600
     17 C13        -44.9870    21.9950    16.3810 c5         1 D06       0.158800
     18 C14        -45.6620    23.3250    15.9570 c5         1 D06      -0.080400
     19 O18        -44.0930    14.6600    12.5310 o          1 D06      -0.577100
     20 N19        -45.0970    13.5830    14.2740 n          1 D06      -0.426800
     21 C20        -45.4700    13.4830    15.7220 c5         1 D06       0.154300
     22 C22        -47.2520    11.8900    16.7550 ca         1 D06      -0.090000
     23 C25        -47.6990    10.9620    14.1230 ca         1 D06      -0.090000
     24 C26        -46.7480    11.9610    14.3860 ca         1 D06      -0.102300
     25 H1         -43.6980    15.2310    15.7600 h1         1 D06       0.017700
     26 H2         -43.5250    17.3460    13.5990 hc         1 D06       0.088700
     27 H3         -43.4520    17.5800    16.6740 hc         1 D06       0.037950
     28 H4         -42.0950    17.8760    15.5940 hc         1 D06       0.037950
     29 H5         -43.1200    19.9920    16.3100 hc         1 D06       0.049450
     30 H6         -43.2330    19.8120    14.5630 hc         1 D06       0.049450
     31 H7         -45.4920    19.2670    16.5790 h1         1 D06       0.013700
     32 H8         -45.9040    16.6170    13.8900 hc         1 D06       0.037950
     33 H9         -45.7770    16.8170    15.6330 hc         1 D06       0.037950
     34 H11        -47.8820    23.3120    15.8670 hc         1 D06       0.045950
     35 H12        -47.5780    20.8570    14.6750 h1         1 D06       0.033950
     36 H13        -47.4180    21.0080    16.4410 h1         1 D06       0.033950
     37 H14        -48.7810    10.4690    17.3390 ha         1 D06       0.115500
     38 H15        -49.1760     9.6500    15.0140 ha         1 D06       0.115500
     39 H16        -45.2090    11.9520    12.8630 h1         1 D06       0.060200
     40 H17        -46.4640    13.2090    12.6420 h1         1 D06       0.060200
     41 H18        -41.5020    15.9290    15.3850 hn         1 D06       0.396000
     42 H19        -41.6900    14.3910    14.9300 hn         1 D06       0.396000
     43 H21        -45.5710    19.0390    13.5120 hc         1 D06       0.049450
     44 H22        -46.9190    18.7370    14.6020 hc         1 D06       0.049450
     45 H24        -45.2630    21.7210    17.4090 h1         1 D06       0.033950
     46 H25        -43.8930    22.0750    16.3310 h1         1 D06       0.033950
     47 H26        -45.0560    23.8510    15.2110 hc         1 D06       0.045950
     48 H27        -45.7870    24.0040    16.8080 hc         1 D06       0.045950
     49 H28        -44.6190    13.1720    16.3430 h1         1 D06       0.060200
     50 H29        -45.8770    14.4270    16.1090 h1         1 D06       0.060200
     51 H30        -47.0750    12.2520    17.7660 ha         1 D06       0.118000
     52 H31        -47.8670    10.6100    13.1080 ha         1 D06       0.118000
     53 H10        -47.0950    23.1770    14.2950 hc         1 D06       0.045950
@<TRIPOS>BOND
     1     1     2 1   
     2     1     9 1   
     3     1    14 1   
     4     1    25 1   
     5     2     3 1   
     6     2     6 1   
     7     2    26 1   
     8     3     4 1   
     9     3    27 1   
    10     3    28 1   
    11     4     5 1   
    12     4    29 1   
    13     4    30 1   
    14     5    15 1   
    15     5    16 1   
    16     5    31 1   
    17     6    15 1   
    18     6    32 1   
    19     6    33 1   
    20     7     8 1   
    21     7    18 1   
    22     7    34 1   
    23     7    53 1   
    24     8    16 1   
    25     8    35 1   
    26     8    36 1   
    27     9    19 2   
    28     9    20 1   
    29    10    21 1   
    30    10    22 ar  
    31    10    24 ar  
    32    11    12 ar  
    33    11    22 ar  
    34    11    37 1   
    35    12    23 ar  
    36    12    38 1   
    37    13    20 1   
    38    13    24 1   
    39    13    39 1   
    40    13    40 1   
    41    14    41 1   
    42    14    42 1   
    43    15    43 1   
    44    15    44 1   
    45    16    17 1   
    46    17    18 1   
    47    17    45 1   
    48    17    46 1   
    49    18    47 1   
    50    18    48 1   
    51    20    21 1   
    52    21    49 1   
    53    21    50 1   
    54    22    51 1   
    55    23    24 ar  
    56    23    52 1   
@<TRIPOS>SUBSTRUCTURE
     1 D06         1 TEMP              0 ****  ****    0 ROOT
