@<TRIPOS>MOLECULE
D06
   53    56     1     0     0
SMALL
bcc


@<TRIPOS>ATOM
      1 C2         -43.5360    15.5330    14.9310 c3         1 D06       0.097500
      2 C4         -43.9060    16.9970    14.6470 c6         1 D06      -0.057700
      3 C6         -43.2240    17.9440    15.6330 c6         1 D06      -0.072900
      4 C7         -43.6220    19.3990    15.4140 c6         1 D06      -0.072900
      5 C8         -45.1330    19.6020    15.4960 c6         1 D06       0.186500
      6 C11        -45.4170    17.2130    14.7100 c6         1 D06      -0.072900
      7 C15        -47.0480    22.7690    15.4650 c5         1 D06      -0.080400
      8 C16        -46.9310    21.2450    15.3750 c5         1 D06       0.158800
      9 C17        -44.2510    14.6300    13.9270 c          1 D06       0.669100
     10 C21        -46.5290    12.4440    15.7120 ca         1 D06      -0.102300
     11 C23        -48.1180    10.8150    16.4290 ca         1 D06      -0.124500
     12 C24        -48.3460    10.4570    15.1030 ca         1 D06      -0.124500
     13 C27        -45.8970    12.9010    13.4750 c5         1 D06       0.154300
     14 N1         -42.1030    15.3150    14.7720 n8         1 D06      -0.862800
     15 C10        -45.8100    18.6690    14.4950 c6         1 D06      -0.072900
     16 N12        -45.5010    20.9890    15.2590 n3         1 D06      -0.715600
     17 C13        -44.8920    21.9360    16.1810 c5         1 D06       0.158800
     18 C14        -45.6600    23.2340    15.9430 c5         1 D06      -0.080400
     19 O18        -44.0050    14.7010    12.7300 o          1 D06      -0.577100
     20 N19        -45.1670    13.7660    14.3980 n          1 D06      -0.493800
     21 C20        -45.5150    13.5400    15.8010 c5         1 D06       0.154300
     22 C22        -47.2060    11.8140    16.7440 ca         1 D06      -0.108000
     23 C25        -47.6620    11.0930    14.0730 ca         1 D06      -0.108000
     24 C26        -46.7520    12.0870    14.3930 ca         1 D06      -0.102300
     25 H1         -43.8760    15.3130    15.9510 h1         1 D06       0.017700
     26 H2         -43.5580    17.2390    13.6350 hc         1 D06       0.088700
     27 H3         -43.4840    17.6430    16.6550 hc         1 D06       0.037950
     28 H4         -42.1360    17.8720    15.5550 hc         1 D06       0.037950
     29 H5         -43.1060    20.0130    16.1540 hc         1 D06       0.049450
     30 H6         -43.2740    19.7330    14.4300 hc         1 D06       0.049450
     31 H7         -45.4600    19.3000    16.5130 h1         1 D06       0.013700
     32 H8         -45.9310    16.6000    13.9660 hc         1 D06       0.037950
     33 H9         -45.7860    16.8840    15.6890 hc         1 D06       0.037950
     34 H11        -47.8440    23.0610    16.1490 hc         1 D06       0.045950
     35 H12        -47.4820    20.8410    14.5250 h1         1 D06       0.033950
     36 H13        -47.3450    20.7760    16.2840 h1         1 D06       0.033950
     37 H14        -48.6560    10.3090    17.2210 ha         1 D06       0.133500
     38 H15        -49.0600     9.6780    14.8730 ha         1 D06       0.133500
     39 H16        -45.2130    12.2810    12.8880 h1         1 D06       0.060200
     40 H17        -46.4880    13.4880    12.7660 h1         1 D06       0.060200
     41 H18        -41.6080    15.8510    15.4730 hn         1 D06       0.340800
     42 H19        -41.8830    14.3480    14.9800 hn         1 D06       0.340800
     43 H21        -45.5360    18.9850    13.4820 hc         1 D06       0.049450
     44 H22        -46.8970    18.7480    14.5640 hc         1 D06       0.049450
     45 H24        -45.0100    21.6090    17.2300 h1         1 D06       0.033950
     46 H25        -43.8240    22.0510    15.9960 h1         1 D06       0.033950
     47 H26        -45.1690    23.8310    15.1740 hc         1 D06       0.045950
     48 H27        -45.7030    23.8430    16.8450 hc         1 D06       0.045950
     49 H28        -44.6450    13.2370    16.3910 h1         1 D06       0.060200
     50 H29        -45.9340    14.4350    16.2670 h1         1 D06       0.060200
     51 H30        -47.0310    12.0920    17.7760 ha         1 D06       0.136000
     52 H31        -47.8400    10.8120    13.0420 ha         1 D06       0.136000
     53 H10        -47.2880    23.2000    14.4930 hc         1 D06       0.045950
@<TRIPOS>BOND
     1     1     2 1   
     2     1     9 1   
     3     1    14 1   
     4     1    25 1   
     5     2     3 1   
     6     2     6 1   
     7     2    26 1   
     8     3     4 1   
     9     3    27 1   
    10     3    28 1   
    11     4     5 1   
    12     4    29 1   
    13     4    30 1   
    14     5    15 1   
    15     5    16 1   
    16     5    31 1   
    17     6    15 1   
    18     6    32 1   
    19     6    33 1   
    20     7     8 1   
    21     7    18 1   
    22     7    34 1   
    23     7    53 1   
    24     8    16 1   
    25     8    35 1   
    26     8    36 1   
    27     9    19 2   
    28     9    20 1   
    29    10    21 1   
    30    10    22 ar  
    31    10    24 ar  
    32    11    12 ar  
    33    11    22 ar  
    34    11    37 1   
    35    12    23 ar  
    36    12    38 1   
    37    13    20 1   
    38    13    24 1   
    39    13    39 1   
    40    13    40 1   
    41    14    41 1   
    42    14    42 1   
    43    15    43 1   
    44    15    44 1   
    45    16    17 1   
    46    17    18 1   
    47    17    45 1   
    48    17    46 1   
    49    18    47 1   
    50    18    48 1   
    51    20    21 1   
    52    21    49 1   
    53    21    50 1   
    54    22    51 1   
    55    23    24 ar  
    56    23    52 1   
@<TRIPOS>SUBSTRUCTURE
     1 D06         1 TEMP              0 ****  ****    0 ROOT
