@<TRIPOS>MOLECULE
D07
   21    22     1     0     0
SMALL
bcc


@<TRIPOS>ATOM
      1 C2           3.1410     1.8180    -0.0440 c3         1 D07       0.050600
      2 C3           2.0760    -1.5210    -0.0890 cc         1 D07       0.389800
      3 C5          -0.5680    -1.3030     0.0040 ca         1 D07       0.794200
      4 C4          -1.0790     0.9170     0.0740 ca         1 D07       0.824000
      5 N2           0.1260     1.4140     0.0450 nb         1 D07      -0.746000
      6 C1           1.0500     0.4430    -0.0090 ca         1 D07       0.493800
      7 N3          -1.4930    -0.3370     0.0590 nb         1 D07      -0.823000
      8 C6          -2.3570    -2.9670     0.0320 c3         1 D07       0.221100
      9 C            0.7960    -0.9270    -0.0330 ca         1 D07      -0.532500
     10 N1           3.0060    -0.5980    -0.0970 nd         1 D07      -0.523100
     11 N            2.3840     0.5920    -0.0480 na         1 D07       0.015200
     12 H1           3.7560     1.8850    -0.9390 h1         1 D07       0.062033
     13 H2           2.4500     2.6550    -0.0250 h1         1 D07       0.062033
     14 H3           3.7800     1.8660     0.8370 h1         1 D07       0.062033
     15 H4           2.3440    -2.5660    -0.1230 h4         1 D07       0.046800
     16 H5          -0.2690    -3.2880    -0.0490 hn         1 D07       0.447800
     17 H6          -2.8370    -2.6480     0.9570 h1         1 D07       0.049033
     18 H7          -2.9190    -2.5560    -0.8060 h1         1 D07       0.049033
     19 H8          -2.3970    -4.0510    -0.0230 h1         1 D07       0.049033
     20 N4          -0.9700    -2.5670    -0.0140 nu         1 D07      -0.853900
     21 CL          -2.3600     2.0900     0.1450 cl         1 D07      -0.138000
@<TRIPOS>BOND
     1     1    11 1   
     2     1    12 1   
     3     1    13 1   
     4     1    14 1   
     5     2     9 1   
     6     2    10 2   
     7     2    15 1   
     8     3     7 ar  
     9     3     9 ar  
    10     3    20 1   
    11     4     5 ar  
    12     4     7 ar  
    13     4    21 1   
    14     5     6 ar  
    15     6     9 ar  
    16     6    11 1   
    17     8    17 1   
    18     8    18 1   
    19     8    19 1   
    20     8    20 1   
    21    10    11 1   
    22    16    20 1   
@<TRIPOS>SUBSTRUCTURE
     1 D07         1 TEMP              0 ****  ****    0 ROOT
