@<TRIPOS>MOLECULE
D07
   21    22     1     0     0
SMALL
No Charge or Current Charge


@<TRIPOS>ATOM
      1 C2           3.2130     1.8020    -0.0800 c3         1 D07       0.079900
      2 C3           1.9580    -1.5220    -0.2250 cc         1 D07       0.389800
      3 C5          -0.5940    -1.1980     0.0290 ca         1 D07       0.465900
      4 C4          -1.1580     1.0140     0.2510 ca         1 D07       0.298000
      5 N2           0.1130     1.4760     0.1730 nb         1 D07      -0.220000
      6 C1           1.0530     0.5270     0.0150 ca         1 D07       0.165500
      7 N3          -1.5630    -0.2780     0.1880 nb         1 D07      -0.297000
      8 C6          -2.3200    -3.0890     0.0380 c3         1 D07       0.221100
      9 C            0.7310    -0.7950    -0.0580 ca         1 D07      -0.401900
     10 N1           3.0160    -0.6990    -0.2560 nd         1 D07      -0.523100
     11 N            2.4290     0.5560    -0.1060 na         1 D07      -0.014100
     12 H1           4.2800     1.5770    -0.1920 h1         1 D07       0.062033
     13 H2           2.8930     2.4530    -0.9030 h1         1 D07       0.062033
     14 H3           3.0500     2.3170     0.8740 h1         1 D07       0.062033
     15 H4           2.1500    -2.5820    -0.3240 h4         1 D07       0.046800
     16 H5          -0.1860    -3.1930    -0.1620 hn         1 D07       0.503000
     17 H6          -2.7870    -2.8290     0.9970 h1         1 D07       0.049033
     18 H7          -2.9460    -2.6920    -0.7720 h1         1 D07       0.049033
     19 H8          -2.2970    -4.1840    -0.0490 h1         1 D07       0.049033
     20 N4          -0.9550    -2.5320    -0.0420 nu         1 D07      -0.909100
     21 Cl          -2.4190     2.2200     0.4580 cl         1 D07      -0.138000
@<TRIPOS>BOND
     1     1    11 1   
     2     1    12 1   
     3     1    13 1   
     4     1    14 1   
     5     2     9 1   
     6     2    10 2   
     7     2    15 1   
     8     3     7 ar  
     9     3     9 ar  
    10     3    20 1   
    11     4     5 ar  
    12     4     7 ar  
    13     4    21 1   
    14     5     6 ar  
    15     6     9 ar  
    16     6    11 1   
    17     8    17 1   
    18     8    18 1   
    19     8    19 1   
    20     8    20 1   
    21    10    11 1   
    22    16    20 1   
@<TRIPOS>SUBSTRUCTURE
     1 D07         1 TEMP              0 ****  ****    0 ROOT
