@<TRIPOS>MOLECULE
D08
   59    61     1     0     0
SMALL
bcc


@<TRIPOS>ATOM
      1 C10          1.7120    -1.1600     0.3780 ca         1 D08      -0.120900
      2 C13          0.3440    -0.7380     0.6580 ce         1 D08       0.359900
      3 C15         -1.9210    -0.6770     1.2020 c5         1 D08       0.111100
      4 C20         -6.1970     2.5480    -0.0170 c3         1 D08       0.115400
      5 C21         -6.1610    -1.9690    -0.9590 c3         1 D08       0.115400
      6 C01          6.0240    -3.6330    -0.3240 c3         1 D08       0.121700
      7 C02          4.3460    -1.9830    -0.0910 ca         1 D08       0.125100
      8 C03          4.0230    -0.6040    -0.0860 ca         1 D08       0.120100
      9 O02          5.0580     0.2200    -0.3230 os         1 D08      -0.303900
     10 C04          4.8340     1.6110    -0.4920 c5         1 D08       0.141100
     11 C05          6.0660     2.2440    -1.1270 c5         1 D08      -0.095400
     12 C06          5.9230     3.7430    -0.8200 c5         1 D08      -0.079400
     13 C07          4.8970     3.8440     0.3350 c5         1 D08      -0.079400
     14 C08          4.6590     2.4060     0.7990 c5         1 D08      -0.095400
     15 C09          2.7220    -0.2120     0.1470 ca         1 D08      -0.159000
     16 C11          2.0350    -2.5050     0.3590 ca         1 D08      -0.110000
     17 C12          3.3460    -2.9150     0.1260 ca         1 D08      -0.200000
     18 C14         -0.8170    -1.6670     0.8360 c5         1 D08      -0.172700
     19 C16         -3.1420    -0.7800     0.3120 c3         1 D08      -0.163400
     20 O03         -4.1610     0.8070     1.7740 o          1 D08      -0.599100
     21 N01         -5.3690     0.2040    -0.0270 n          1 D08      -0.462800
     22 O04         -1.3100     0.6220     1.0350 os         1 D08      -0.138300
     23 N02          0.0200     0.4900     0.7610 n2         1 D08      -0.364200
     24 C18         -5.5600    -0.6020    -1.2220 c3         1 D08       0.104500
     25 C19         -6.4460     1.1030     0.3670 c3         1 D08       0.104500
     26 O05         -6.1040     2.6410    -1.4210 oh         1 D08      -0.600300
     27 O06         -7.4470    -1.8180    -0.4080 oh         1 D08      -0.600300
     28 H30         -2.2020    -0.7820     2.2520 h1         1 D08       0.087700
     29 H25         -7.0320     3.1440     0.3760 h1         1 D08       0.026700
     30 H24         -5.2880     2.9090     0.4740 h1         1 D08       0.026700
     31 H27         -6.1860    -2.5100    -1.9140 h1         1 D08       0.026700
     32 H26         -5.5050    -2.5380    -0.2900 h1         1 D08       0.026700
     33 H01          5.8150    -4.1190     0.6320 h1         1 D08       0.040367
     34 H02          5.5310    -4.1940    -1.1220 h1         1 D08       0.040367
     35 H03          7.0970    -3.6450    -0.4980 h1         1 D08       0.040367
     36 H04          3.9650     1.7670    -1.1460 h1         1 D08       0.047700
     37 H05          6.9580     1.8370    -0.6440 hc         1 D08       0.057700
     38 H06          6.1440     2.0310    -2.1940 hc         1 D08       0.057700
     39 H08          6.8840     4.1750    -0.5420 hc         1 D08       0.044950
     40 H07          5.5750     4.2930    -1.6950 hc         1 D08       0.044950
     41 H10          5.2420     4.4810     1.1490 hc         1 D08       0.044950
     42 H09          3.9620     4.2760    -0.0270 hc         1 D08       0.044950
     43 H12          3.6890     2.2730     1.2780 hc         1 D08       0.057700
     44 H11          5.4270     2.0960     1.5130 hc         1 D08       0.057700
     45 H13          2.4590     0.8370     0.1650 ha         1 D08       0.160000
     46 H14          1.2780    -3.2600     0.5270 ha         1 D08       0.128000
     47 H15          3.5630    -3.9740     0.1180 ha         1 D08       0.138000
     48 H18         -1.0170    -2.2150    -0.0900 hc         1 D08       0.070200
     49 H19         -0.6460    -2.4070     1.6190 hc         1 D08       0.070200
     50 H17         -2.8470    -0.5800    -0.7220 hc         1 D08       0.064700
     51 H16         -3.4930    -1.8160     0.3290 hc         1 D08       0.064700
     52 H22         -4.6140    -0.7370    -1.7460 h1         1 D08       0.066700
     53 H23         -6.2000    -0.0440    -1.9060 h1         1 D08       0.066700
     54 H21         -6.6010     1.0490     1.4450 h1         1 D08       0.066700
     55 H20         -7.3650     0.7520    -0.0990 h1         1 D08       0.066700
     56 H28         -5.8560     3.5420    -1.6470 ho         1 D08       0.404500
     57 H29         -7.7780    -2.6890    -0.1700 ho         1 D08       0.404500
     58 C17         -4.2650     0.1460     0.7470 c          1 D08       0.671100
     59 O01          5.6350    -2.2730    -0.3190 os         1 D08      -0.293900
@<TRIPOS>BOND
     1     1     2 1   
     2     1    15 ar  
     3     1    16 ar  
     4     2    18 1   
     5     2    23 2   
     6     3    18 1   
     7     3    19 1   
     8     3    22 1   
     9     3    28 1   
    10     4    25 1   
    11     4    26 1   
    12     4    29 1   
    13     4    30 1   
    14     5    24 1   
    15     5    27 1   
    16     5    31 1   
    17     5    32 1   
    18     6    33 1   
    19     6    34 1   
    20     6    35 1   
    21     6    59 1   
    22     7     8 ar  
    23     7    17 ar  
    24     7    59 1   
    25     8     9 1   
    26     8    15 ar  
    27     9    10 1   
    28    10    11 1   
    29    10    14 1   
    30    10    36 1   
    31    11    12 1   
    32    11    37 1   
    33    11    38 1   
    34    12    13 1   
    35    12    39 1   
    36    12    40 1   
    37    13    14 1   
    38    13    41 1   
    39    13    42 1   
    40    14    43 1   
    41    14    44 1   
    42    15    45 1   
    43    16    17 ar  
    44    16    46 1   
    45    17    47 1   
    46    18    48 1   
    47    18    49 1   
    48    19    50 1   
    49    19    51 1   
    50    19    58 1   
    51    20    58 2   
    52    21    24 1   
    53    21    25 1   
    54    21    58 1   
    55    22    23 1   
    56    24    52 1   
    57    24    53 1   
    58    25    54 1   
    59    25    55 1   
    60    26    56 1   
    61    27    57 1   
@<TRIPOS>SUBSTRUCTURE
     1 D08         1 TEMP              0 ****  ****    0 ROOT
