@<TRIPOS>MOLECULE
D08
   59    61     1     0     0
SMALL
No Charge or Current Charge


@<TRIPOS>ATOM
      1 C10          1.7620    -0.8050    -0.4810 ca         1 D08      -0.120900
      2 C13          0.3220    -0.3890    -0.5340 ce         1 D08       0.359900
      3 C15         -1.8970    -0.0780     0.1090 c5         1 D08       0.134300
      4 C20         -7.1540     2.2430    -0.8770 c3         1 D08       0.138600
      5 C21         -6.5330    -2.1600     0.4660 c3         1 D08       0.138600
      6 C01          6.2560    -3.3030    -0.0310 c3         1 D08       0.144900
      7 C02          4.4840    -1.6220    -0.4310 ca         1 D08       0.125100
      8 C03          4.1440    -0.3030    -0.8090 ca         1 D08       0.120100
      9 O02          5.1450     0.5780    -1.1850 os         1 D08      -0.327100
     10 C04          5.1550     1.7240    -0.2920 c5         1 D08       0.164300
     11 C05          6.2860     2.6640    -0.7600 c5         1 D08      -0.095400
     12 C06          6.3810     3.5880     0.4780 c5         1 D08      -0.079400
     13 C07          6.3870     2.5750     1.6630 c5         1 D08      -0.079400
     14 C08          5.6840     1.2930     1.1080 c5         1 D08      -0.095400
     15 C09          2.7900     0.0910    -0.8540 ca         1 D08      -0.141000
     16 C11          2.1150    -2.1140    -0.0900 ca         1 D08      -0.092000
     17 C12          3.4590    -2.5220    -0.0660 ca         1 D08      -0.182000
     18 C14         -0.8530    -1.2120    -0.0410 c5         1 D08      -0.172700
     19 C16         -3.3540    -0.4960    -0.1870 c3         1 D08      -0.163400
     20 O03         -4.1190     1.6240     0.6630 o          1 D08      -0.599100
     21 N01         -5.7980     0.2400    -0.0580 n          1 D08      -0.395800
     22 O04         -1.4580     0.9100    -0.8440 os         1 D08      -0.260000
     23 N02         -0.0770     0.7330    -1.0380 n2         1 D08      -0.265700
     24 C18         -6.2550    -1.0710    -0.6040 c3         1 D08       0.104500
     25 C19         -6.8520     1.2420     0.2670 c3         1 D08       0.104500
     26 O05         -7.7000     1.5790    -2.0290 oh         1 D08      -0.662500
     27 O06         -7.6270    -1.7930     1.3220 oh         1 D08      -0.662500
     28 H30         -1.8310     0.3600     1.1160 h1         1 D08       0.087700
     29 H25         -7.8660     2.9930    -0.5060 h1         1 D08       0.026700
     30 H24         -6.2280     2.7700    -1.1440 h1         1 D08       0.026700
     31 H27         -6.7630    -3.1020    -0.0490 h1         1 D08       0.026700
     32 H26         -5.6250    -2.3230     1.0600 h1         1 D08       0.026700
     33 H01          5.9610    -3.5210     1.0030 h1         1 D08       0.040367
     34 H02          5.8270    -4.0680    -0.6910 h1         1 D08       0.040367
     35 H03          7.3490    -3.3740    -0.0940 h1         1 D08       0.040367
     36 H04          4.1840     2.2360    -0.2560 h1         1 D08       0.047700
     37 H05          7.2250     2.1280    -0.9460 hc         1 D08       0.057700
     38 H06          6.0230     3.2130    -1.6710 hc         1 D08       0.057700
     39 H08          7.2780     4.2170     0.4630 hc         1 D08       0.044950
     40 H07          5.5160     4.2600     0.5360 hc         1 D08       0.044950
     41 H10          7.4110     2.3460     1.9840 hc         1 D08       0.044950
     42 H09          5.8670     2.9830     2.5370 hc         1 D08       0.044950
     43 H12          4.8730     0.9540     1.7630 hc         1 D08       0.057700
     44 H11          6.4000     0.4660     1.0290 hc         1 D08       0.057700
     45 H13          2.5390     1.0940    -1.1900 ha         1 D08       0.142000
     46 H14          1.3460    -2.8320     0.1870 ha         1 D08       0.110000
     47 H15          3.6840    -3.5410     0.2350 ha         1 D08       0.120000
     48 H18         -1.1500    -1.9570    -0.7880 hc         1 D08       0.070200
     49 H19         -0.6500    -1.7240     0.9050 hc         1 D08       0.070200
     50 H17         -3.4840    -0.7790    -1.2370 hc         1 D08       0.064700
     51 H16         -3.6150    -1.4310     0.3190 hc         1 D08       0.064700
     52 H22         -5.5290    -1.4580    -1.3270 h1         1 D08       0.066700
     53 H23         -7.1820    -0.9120    -1.1710 h1         1 D08       0.066700
     54 H21         -6.5580     1.8060     1.1610 h1         1 D08       0.066700
     55 H20         -7.7830     0.7200     0.5230 h1         1 D08       0.066700
     56 H28         -7.8530     2.2680    -2.7130 ho         1 D08       0.443500
     57 H29         -7.7420    -2.5230     1.9710 ho         1 D08       0.443500
     58 C17         -4.4320     0.5450     0.1740 c          1 D08       0.604100
     59 O01          5.8200    -1.9890    -0.4210 os         1 D08      -0.317100
@<TRIPOS>BOND
     1     1     2 1   
     2     1    15 ar  
     3     1    16 ar  
     4     2    18 1   
     5     2    23 2   
     6     3    18 1   
     7     3    19 1   
     8     3    22 1   
     9     3    28 1   
    10     4    25 1   
    11     4    26 1   
    12     4    29 1   
    13     4    30 1   
    14     5    24 1   
    15     5    27 1   
    16     5    31 1   
    17     5    32 1   
    18     6    33 1   
    19     6    34 1   
    20     6    35 1   
    21     6    59 1   
    22     7     8 ar  
    23     7    17 ar  
    24     7    59 1   
    25     8     9 1   
    26     8    15 ar  
    27     9    10 1   
    28    10    11 1   
    29    10    14 1   
    30    10    36 1   
    31    11    12 1   
    32    11    37 1   
    33    11    38 1   
    34    12    13 1   
    35    12    39 1   
    36    12    40 1   
    37    13    14 1   
    38    13    41 1   
    39    13    42 1   
    40    14    43 1   
    41    14    44 1   
    42    15    45 1   
    43    16    17 ar  
    44    16    46 1   
    45    17    47 1   
    46    18    48 1   
    47    18    49 1   
    48    19    50 1   
    49    19    51 1   
    50    19    58 1   
    51    20    58 2   
    52    21    24 1   
    53    21    25 1   
    54    21    58 1   
    55    22    23 1   
    56    24    52 1   
    57    24    53 1   
    58    25    54 1   
    59    25    55 1   
    60    26    56 1   
    61    27    57 1   
@<TRIPOS>SUBSTRUCTURE
     1 D08         1 TEMP              0 ****  ****    0 ROOT
