@<TRIPOS>MOLECULE
D09
   38    40     1     0     0
SMALL
No Charge or Current Charge


@<TRIPOS>ATOM
      1 C'1         -6.6090     1.1350    13.6830 ca         1 D09      -0.087800
      2 C'2         -7.4520     0.2320    14.3750 ca         1 D09       0.152100
      3 C'3         -8.8540     0.4080    14.3260 ca         1 D09      -0.195000
      4 C'4         -9.4090     1.4740    13.5990 ca         1 D09      -0.068000
      5 C'5         -8.5720     2.3710    12.9190 ca         1 D09      -0.147000
      6 C'6         -7.1790     2.2040    12.9630 ca         1 D09      -0.072000
      7 N1           0.3780     3.4300    13.8970 nb         1 D09      -0.264000
      8 C10         -4.5850    -0.3050    13.1090 c3         1 D09      -0.050900
      9 C11         -5.1250     0.9870    13.7050 ce         1 D09      -0.022400
     10 C13         -7.6500    -1.7590    15.8300 c3         1 D09       0.147900
     11 O13         -6.8730    -0.7960    15.0980 os         1 D09      -0.347100
     12 C2           0.0920     4.6480    13.4020 ca         1 D09       0.419900
     13 N2           1.1450     5.4660    13.1780 nv         1 D09      -1.046900
     14 N3          -1.1140     5.1560    13.0890 nb         1 D09      -0.347000
     15 C4          -2.1590     4.3490    13.3090 ca         1 D09       0.462900
     16 N4          -3.3700     4.8360    12.9620 nv         1 D09      -1.066900
     17 C5          -1.9700     3.0720    13.8320 ca         1 D09      -0.322800
     18 C6          -2.8270     1.9770    14.1770 cd         1 D09      -0.036200
     19 C7          -2.0060     0.9630    14.6330 cc         1 D09      -0.087900
     20 C8          -0.6980     2.6520    14.1030 ca         1 D09       0.330300
     21 O8          -0.6650     1.3610    14.5900 os         1 D09      -0.293400
     22 C9          -4.2900     1.9710    14.1460 cf         1 D09      -0.168000
     23 H'3         -9.5270    -0.2670    14.8460 ha         1 D09       0.118000
     24 H'4        -10.4890     1.6060    13.5640 ha         1 D09       0.114000
     25 H'5         -9.0020     3.1970    12.3570 ha         1 D09       0.116000
     26 H'6         -6.5380     2.9010    12.4280 ha         1 D09       0.110000
     27 H10         -3.7110    -0.1220    12.4730 hc         1 D09       0.046700
     28 H10A        -4.2880    -1.0100    13.8940 hc         1 D09       0.046700
     29 H10B        -5.3360    -0.8050    12.4850 hc         1 D09       0.046700
     30 H13         -6.9900    -2.4830    16.3250 h1         1 D09       0.042700
     31 H13A        -8.2550    -1.2680    16.6030 h1         1 D09       0.042700
     32 H13B        -8.3180    -2.3140    15.1590 h1         1 D09       0.042700
     33 HN2          2.0790     5.0620    13.1750 hn         1 D09       0.490000
     34 HN2A         1.0010     6.2930    12.6050 hn         1 D09       0.490000
     35 HN4         -3.3820     5.6680    12.3780 hn         1 D09       0.493500
     36 HN4A        -4.1100     4.1630    12.7950 hn         1 D09       0.493500
     37 H7          -2.2320    -0.0250    15.0240 h4         1 D09       0.244000
     38 H9          -4.7540     2.8920    14.5000 ha         1 D09       0.173000
@<TRIPOS>BOND
     1     1     2 ar  
     2     1     6 ar  
     3     1     9 1   
     4     2     3 ar  
     5     2    11 1   
     6     3     4 ar  
     7     3    23 1   
     8     4     5 ar  
     9     4    24 1   
    10     5     6 ar  
    11     5    25 1   
    12     6    26 1   
    13     7    12 ar  
    14     7    20 ar  
    15     8     9 1   
    16     8    27 1   
    17     8    28 1   
    18     8    29 1   
    19     9    22 2   
    20    10    11 1   
    21    10    30 1   
    22    10    31 1   
    23    10    32 1   
    24    12    13 1   
    25    12    14 ar  
    26    13    33 1   
    27    13    34 1   
    28    14    15 ar  
    29    15    16 1   
    30    15    17 ar  
    31    16    35 1   
    32    16    36 1   
    33    17    18 1   
    34    17    20 ar  
    35    18    19 2   
    36    18    22 1   
    37    19    21 1   
    38    19    37 1   
    39    20    21 1   
    40    22    38 1   
@<TRIPOS>SUBSTRUCTURE
     1 D09         1 TEMP              0 ****  ****    0 ROOT
