@<TRIPOS>MOLECULE
D09
   38    40     1     0     0
SMALL
abcg2


@<TRIPOS>ATOM
      1 C'1         -6.5900     1.0570    13.6680 ca         1 D09      -0.087800
      2 C'2         -7.4680     0.2190    14.3870 ca         1 D09       0.152100
      3 C'3         -8.8460     0.4290    14.3350 ca         1 D09      -0.195000
      4 C'4         -9.3640     1.4770    13.5780 ca         1 D09      -0.068000
      5 C'5         -8.5160     2.3190    12.8730 ca         1 D09      -0.147000
      6 C'6         -7.1430     2.1000    12.9230 ca         1 D09      -0.072000
      7 N1           0.3870     3.4080    13.7680 nb         1 D09      -0.264000
      8 C10         -4.6060    -0.5390    13.3740 c3         1 D09      -0.050900
      9 C11         -5.1230     0.8400    13.6850 ce         1 D09      -0.022400
     10 C13         -7.7270    -1.6520    15.8630 c3         1 D09       0.147900
     11 O13         -6.8880    -0.7530    15.1400 os         1 D09      -0.347100
     12 C2           0.1230     4.6890    13.4510 ca         1 D09       0.419900
     13 N2           1.1850     5.5390    13.3800 nv         1 D09      -1.046900
     14 N3          -1.0890     5.2230    13.2240 nb         1 D09      -0.347000
     15 C4          -2.1770     4.4480    13.3370 ca         1 D09       0.462900
     16 N4          -3.3750     5.0250    13.0970 nv         1 D09      -1.066900
     17 C5          -2.0300     3.0940    13.7120 ca         1 D09      -0.322800
     18 C6          -2.8630     1.9220    13.9380 cd         1 D09      -0.036200
     19 C7          -1.9830     0.9200    14.2150 cc         1 D09      -0.087900
     20 C8          -0.7130     2.6850    13.8810 ca         1 D09       0.330300
     21 O8          -0.6690     1.3650    14.1860 os         1 D09      -0.293400
     22 C9          -4.3170     1.8920    13.9190 cf         1 D09      -0.168000
     23 H'3         -9.5180    -0.2090    14.8880 ha         1 D09       0.118000
     24 H'4        -10.4360     1.6260    13.5450 ha         1 D09       0.114000
     25 H'5         -8.9140     3.1310    12.2790 ha         1 D09       0.116000
     26 H'6         -6.4750     2.7370    12.3570 ha         1 D09       0.110000
     27 H10         -3.7060    -0.4760    12.7580 hc         1 D09       0.046700
     28 H10A        -4.3440    -1.0870    14.2810 hc         1 D09       0.046700
     29 H10B        -5.3560    -1.1250    12.8440 hc         1 D09       0.046700
     30 H13         -7.0560    -2.3460    16.3620 h1         1 D09       0.042700
     31 H13A        -8.3260    -1.1210    16.6060 h1         1 D09       0.042700
     32 H13B        -8.3880    -2.2010    15.1880 h1         1 D09       0.042700
     33 HN2          2.1010     5.1270    13.3020 hn         1 D09       0.490000
     34 HN2A         1.0420     6.4170    12.9090 hn         1 D09       0.490000
     35 HN4         -3.3810     5.9520    12.7020 hn         1 D09       0.493500
     36 HN4A        -4.1940     4.4590    12.9570 hn         1 D09       0.493500
     37 H7          -2.1060    -0.1100    14.4910 h4         1 D09       0.244000
     38 H9          -4.7950     2.8410    14.1310 ha         1 D09       0.173000
@<TRIPOS>BOND
     1     1     2 ar  
     2     1     6 ar  
     3     1     9 1   
     4     2     3 ar  
     5     2    11 1   
     6     3     4 ar  
     7     3    23 1   
     8     4     5 ar  
     9     4    24 1   
    10     5     6 ar  
    11     5    25 1   
    12     6    26 1   
    13     7    12 ar  
    14     7    20 ar  
    15     8     9 1   
    16     8    27 1   
    17     8    28 1   
    18     8    29 1   
    19     9    22 2   
    20    10    11 1   
    21    10    30 1   
    22    10    31 1   
    23    10    32 1   
    24    12    13 1   
    25    12    14 ar  
    26    13    33 1   
    27    13    34 1   
    28    14    15 ar  
    29    15    16 1   
    30    15    17 ar  
    31    16    35 1   
    32    16    36 1   
    33    17    18 1   
    34    17    20 ar  
    35    18    19 2   
    36    18    22 1   
    37    19    21 1   
    38    19    37 1   
    39    20    21 1   
    40    22    38 1   
@<TRIPOS>SUBSTRUCTURE
     1 D09         1 TEMP              0 ****  ****    0 ROOT
