@<TRIPOS>MOLECULE
D0A
   37    40     1     0     0
SMALL
bcc


@<TRIPOS>ATOM
      1 C13         -0.5050    -2.2570     0.0830 ca         1 D0A      -0.243300
      2 C17         -2.6580    -3.2230     0.1500 ca         1 D0A      -0.059400
      3 C16         -2.0850    -4.4710     0.1590 ca         1 D0A       0.391200
      4 C19          1.8890     3.1600    -0.0630 ca         1 D0A      -0.177300
      5 C20          3.2710     3.1880    -0.0770 ca         1 D0A      -0.109000
      6 C21          3.9780     1.9940    -0.0160 ca         1 D0A      -0.183300
      7 C22          3.2400     0.8260     0.0590 ca         1 D0A       0.299600
      8 C24          3.8950    -0.5250     0.1710 c3         1 D0A       0.631600
      9 C11          1.2450     1.9250     0.0140 cp         1 D0A       0.367300
     10 C12         -1.8890    -2.0560     0.1100 ca         1 D0A       0.171600
     11 C1          -2.8990     1.5280     0.0270 ca         1 D0A      -0.368400
     12 C2          -2.2390     2.7690    -0.0100 ca         1 D0A       0.471800
     13 N3          -0.9220     2.9510    -0.0140 nb         1 D0A      -0.743000
     14 C4          -0.2360     1.8260     0.0230 cp         1 D0A       0.661000
     15 N5          -0.7360     0.5910     0.0630 nb         1 D0A      -0.767000
     16 C6          -2.0410     0.4160     0.0640 ca         1 D0A       0.762200
     17 C7          -4.2980     1.7890     0.0110 cc         1 D0A      -0.156200
     18 C8          -4.4260     3.1480    -0.0330 cd         1 D0A      -0.115100
     19 N9          -3.1880     3.7320    -0.0450 na         1 D0A      -0.261100
     20 N10         -2.5530    -0.8490     0.0990 nu         1 D0A      -0.728300
     21 C14         -0.0180    -3.5550     0.0940 ca         1 D0A       0.408200
     22 N15         -0.7680    -4.6480     0.1310 nb         1 D0A      -0.663000
     23 F18         -3.9970    -3.1080     0.1810 f          1 D0A      -0.150900
     24 N23          1.9210     0.7860     0.0760 nb         1 D0A      -0.602000
     25 F25          3.8370    -0.9850     1.4280 f          1 D0A      -0.227633
     26 F26          3.2960    -1.4310    -0.6040 f          1 D0A      -0.227633
     27 F27          5.1850    -0.4890    -0.1770 f          1 D0A      -0.227633
     28 H32          0.1780    -1.4240     0.0550 ha         1 D0A       0.200000
     29 H34         -2.7180    -5.3510     0.1910 h4         1 D0A       0.032100
     30 H35          1.3130     4.0720    -0.1140 ha         1 D0A       0.168000
     31 H36          3.7990     4.1290    -0.1390 ha         1 D0A       0.148000
     32 H37          5.0590     1.9940    -0.0280 ha         1 D0A       0.161000
     33 H28         -5.1090     1.0800     0.0280 ha         1 D0A       0.161000
     34 H29         -5.3160     3.7550    -0.0590 h4         1 D0A       0.172000
     35 H30         -3.0100     4.7240    -0.0770 hn         1 D0A       0.314700
     36 H31         -3.5600    -0.9060     0.1090 hn         1 D0A       0.460800
     37 H33          1.0560    -3.7060     0.0710 h4         1 D0A       0.029100
@<TRIPOS>BOND
     1     1    10 ar  
     2     1    21 ar  
     3     1    28 1   
     4     2     3 ar  
     5     2    10 ar  
     6     2    23 1   
     7     3    22 ar  
     8     3    29 1   
     9     4     5 ar  
    10     4     9 ar  
    11     4    30 1   
    12     5     6 ar  
    13     5    31 1   
    14     6     7 ar  
    15     6    32 1   
    16     7     8 1   
    17     7    24 ar  
    18     8    25 1   
    19     8    26 1   
    20     8    27 1   
    21     9    14 1   
    22     9    24 ar  
    23    10    20 1   
    24    11    12 ar  
    25    11    16 ar  
    26    11    17 1   
    27    12    13 ar  
    28    12    19 1   
    29    13    14 ar  
    30    14    15 ar  
    31    15    16 ar  
    32    16    20 1   
    33    17    18 2   
    34    17    33 1   
    35    18    19 1   
    36    18    34 1   
    37    19    35 1   
    38    20    36 1   
    39    21    22 ar  
    40    21    37 1   
@<TRIPOS>SUBSTRUCTURE
     1 D0A         1 TEMP              0 ****  ****    0 ROOT
