@<TRIPOS>MOLECULE
D0A
   37    40     1     0     0
SMALL
No Charge or Current Charge


@<TRIPOS>ATOM
      1 C13         -0.7680    -2.4840    -0.4140 ca         1 D0A      -0.160000
      2 C17         -2.8620    -3.2330     0.5090 ca         1 D0A       0.041000
      3 C16         -2.3390    -4.5380     0.5050 ca         1 D0A       0.325900
      4 C19          1.9620     3.2580     0.1280 ca         1 D0A      -0.094000
      5 C20          3.3620     3.3550     0.1770 ca         1 D0A      -0.091000
      6 C21          4.1130     2.1690     0.2040 ca         1 D0A      -0.100000
      7 C22          3.4460     0.9280     0.1800 ca         1 D0A       0.234300
      8 C24          4.2580    -0.3820     0.2090 c3         1 D0A       0.267700
      9 C11          1.3370     1.9820     0.1070 cp         1 D0A       0.302000
     10 C12         -2.0570    -2.1700     0.0500 ca         1 D0A       0.310000
     11 C1          -2.8310     1.5540    -0.0780 ca         1 D0A      -0.237800
     12 C2          -2.2620     2.8000    -0.0880 ca         1 D0A       0.143500
     13 N3          -0.9260     2.9520    -0.0260 nb         1 D0A      -0.217000
     14 C4          -0.1710     1.8240     0.0500 cp         1 D0A       0.135000
     15 N5          -0.6820     0.5640     0.0720 nb         1 D0A      -0.241000
     16 C6          -2.0160     0.4170    -0.0020 ca         1 D0A       0.433900
     17 C7          -4.2570     1.7060    -0.1550 cc         1 D0A      -0.206200
     18 C8          -4.5030     3.0680    -0.2090 cd         1 D0A      -0.165100
     19 N9          -3.2630     3.7550    -0.1680 na         1 D0A      -0.311400
     20 N10         -2.5700    -0.8590     0.0430 nu         1 D0A      -0.921900
     21 C14         -0.3270    -3.8140    -0.3820 ca         1 D0A       0.342900
     22 N15         -1.0910    -4.8350     0.0700 nb         1 D0A      -0.663000
     23 F18         -4.1260    -3.0080     0.9550 f          1 D0A      -0.186000
     24 N23          2.0890     0.8480     0.1340 nb         1 D0A      -0.602000
     25 F25          4.9750    -0.4950     1.3510 f          1 D0A      -0.106333
     26 F26          3.4880    -1.4950     0.1210 f          1 D0A      -0.106333
     27 F27          5.1420    -0.4420    -0.8140 f          1 D0A      -0.106333
     28 H32         -0.1050    -1.7280    -0.8120 ha         1 D0A       0.182000
     29 H34         -2.9400    -5.3750     0.8590 h4         1 D0A       0.032100
     30 H35          1.3660     4.1660     0.1070 ha         1 D0A       0.150000
     31 H36          3.8530     4.3260     0.1950 ha         1 D0A       0.130000
     32 H37          5.1990     2.2080     0.2420 ha         1 D0A       0.143000
     33 H28         -5.0180     0.9270    -0.1760 ha         1 D0A       0.211000
     34 H29         -5.4560     3.5940    -0.2760 h4         1 D0A       0.222000
     35 H30         -3.1240     4.7610    -0.1930 hn         1 D0A       0.365000
     36 H31         -3.5750    -0.8270     0.2040 hn         1 D0A       0.516000
     37 H33          0.6690    -4.0750    -0.7370 h4         1 D0A       0.029100
@<TRIPOS>BOND
     1     1    10 ar  
     2     1    21 ar  
     3     1    28 1   
     4     2     3 ar  
     5     2    10 ar  
     6     2    23 1   
     7     3    22 ar  
     8     3    29 1   
     9     4     5 ar  
    10     4     9 ar  
    11     4    30 1   
    12     5     6 ar  
    13     5    31 1   
    14     6     7 ar  
    15     6    32 1   
    16     7     8 1   
    17     7    24 ar  
    18     8    25 1   
    19     8    26 1   
    20     8    27 1   
    21     9    14 1   
    22     9    24 ar  
    23    10    20 1   
    24    11    12 ar  
    25    11    16 ar  
    26    11    17 1   
    27    12    13 ar  
    28    12    19 1   
    29    13    14 ar  
    30    14    15 ar  
    31    15    16 ar  
    32    16    20 1   
    33    17    18 2   
    34    17    33 1   
    35    18    19 1   
    36    18    34 1   
    37    19    35 1   
    38    20    36 1   
    39    21    22 ar  
    40    21    37 1   
@<TRIPOS>SUBSTRUCTURE
     1 D0A         1 TEMP              0 ****  ****    0 ROOT
