@<TRIPOS>MOLECULE
D0B
   64    67     1     0     0
SMALL
No Charge or Current Charge


@<TRIPOS>ATOM
      1 C10          2.7680    -1.6840    -0.0630 ca         1 D0B      -0.114500
      2 C13          1.4140    -2.2580    -0.1950 cc         1 D0B       0.314500
      3 C15         -2.8240    -1.3590    -0.5780 c3         1 D0B      -0.178400
      4 C17         -6.4510     0.0340    -1.0930 c6         1 D0B       0.064000
      5 C20         -4.7100     0.5870     0.6630 c6         1 D0B       0.064000
      6 C21         -0.3360    -3.6270     0.0610 cd         1 D0B      -0.171000
      7 C22          0.9610    -3.4400     0.4250 cc         1 D0B      -0.218000
      8 C24         -5.4320     2.2750     2.4680 c3         1 D0B      -0.103600
      9 C01          7.6970    -0.5880     1.0390 c3         1 D0B       0.145900
     10 C02          5.3800    -0.5690     0.1680 ca         1 D0B       0.113100
     11 C03          4.3950     0.0790    -0.6100 ca         1 D0B       0.116100
     12 O02          4.7200     1.2440    -1.2860 os         1 D0B      -0.327100
     13 C04          3.8760     2.3340    -0.8250 c5         1 D0B       0.166300
     14 C05          4.2860     3.5990    -1.6090 c5         1 D0B      -0.095400
     15 C06          3.5770     4.6730    -0.7510 c5         1 D0B      -0.079400
     16 C07          3.9680     4.2660     0.7010 c5         1 D0B      -0.079400
     17 C08          4.2810     2.7350     0.6250 c5         1 D0B      -0.095400
     18 C09          3.1100    -0.4880    -0.7370 ca         1 D0B      -0.149000
     19 C11          3.7570    -2.3080     0.7320 ca         1 D0B      -0.094000
     20 C12          5.0480    -1.7630     0.8430 ca         1 D0B      -0.176000
     21 N01          0.4700    -1.6940    -0.9290 nd         1 D0B      -0.536800
     22 N02         -0.6160    -2.5430    -0.7720 na         1 D0B       0.128800
     23 C14         -1.9020    -2.2590    -1.4300 c3         1 D0B       0.102600
     24 C16         -4.1810    -1.0370    -1.2190 c          1 D0B       0.613100
     25 N03         -5.1320    -0.3100    -0.4650 n          1 D0B      -0.409800
     26 C18         -7.5330     0.5680    -0.1160 c6         1 D0B       0.152300
     27 O03         -6.9720     1.5610     0.7700 os         1 D0B      -0.454000
     28 C19         -5.8670     1.0940     1.5680 c6         1 D0B       0.152300
     29 O04         -4.4540    -1.4460    -2.3410 o          1 D0B      -0.610100
     30 C23         -8.2140    -0.5580     0.7150 c3         1 D0B      -0.103600
     31 H01         -3.0100    -1.7900     0.4120 hc         1 D0B       0.076700
     32 H19         -2.3330    -0.4140    -0.3230 hc         1 D0B       0.076700
     33 H21         -6.8530    -0.8480    -1.6120 h1         1 D0B       0.064450
     34 H25         -3.9900     0.0680     1.3100 h1         1 D0B       0.064450
     35 H24         -4.1890     1.4550     0.2330 h1         1 D0B       0.064450
     36 H26         -1.0550    -4.3990     0.3110 h4         1 D0B       0.153000
     37 H27          1.5420    -4.0820     1.0770 ha         1 D0B       0.145000
     38 H30         -5.1010     3.1320     1.8700 hc         1 D0B       0.045867
     39 H28         -6.2580     2.6070     3.1070 hc         1 D0B       0.045867
     40 H29         -4.6030     1.9830     3.1240 hc         1 D0B       0.045867
     41 H02          8.6060     0.0220     0.9660 h1         1 D0B       0.038367
     42 H03          7.4100    -0.6450     2.0970 h1         1 D0B       0.038367
     43 H04          7.9350    -1.5980     0.6820 h1         1 D0B       0.038367
     44 H05          2.8060     2.1120    -0.9360 h1         1 D0B       0.047700
     45 H07          5.3730     3.7420    -1.6320 hc         1 D0B       0.056950
     46 H06          3.9240     3.5850    -2.6440 hc         1 D0B       0.056950
     47 H08          3.9010     5.6900    -1.0010 hc         1 D0B       0.042450
     48 H09          2.4890     4.6380    -0.8930 hc         1 D0B       0.042450
     49 H10          4.8480     4.8220     1.0460 hc         1 D0B       0.042450
     50 H11          3.1590     4.4840     1.4080 hc         1 D0B       0.042450
     51 H12          3.7220     2.1640     1.3750 hc         1 D0B       0.056950
     52 H13          5.3460     2.5510     0.8090 hc         1 D0B       0.056950
     53 H14          2.3780    -0.0000    -1.3740 ha         1 D0B       0.135000
     54 H15          3.5410    -3.2270     1.2680 ha         1 D0B       0.114000
     55 H16          5.7750    -2.2840     1.4590 ha         1 D0B       0.117000
     56 H17         -2.4050    -3.2130    -1.6330 h1         1 D0B       0.077200
     57 H18         -1.7010    -1.7750    -2.3940 h1         1 D0B       0.077200
     58 H22         -8.3220     1.0550    -0.7060 h1         1 D0B       0.058700
     59 H23         -6.2040     0.2780     2.2230 h1         1 D0B       0.058700
     60 H32         -7.4830    -1.2290     1.1820 hc         1 D0B       0.045867
     61 H33         -8.8500    -0.1390     1.5030 hc         1 D0B       0.045867
     62 H31         -8.8510    -1.1760     0.0720 hc         1 D0B       0.045867
     63 O01          6.6420    -0.0050     0.2540 os         1 D0B      -0.320100
     64 H20         -6.2740     0.7990    -1.8620 h1         1 D0B       0.064450
@<TRIPOS>BOND
     1     1     2 1   
     2     1    18 ar  
     3     1    19 ar  
     4     2     7 1   
     5     2    21 2   
     6     3    23 1   
     7     3    24 1   
     8     3    31 1   
     9     3    32 1   
    10     4    25 1   
    11     4    26 1   
    12     4    33 1   
    13     4    64 1   
    14     5    25 1   
    15     5    28 1   
    16     5    34 1   
    17     5    35 1   
    18     6     7 2   
    19     6    22 1   
    20     6    36 1   
    21     7    37 1   
    22     8    28 1   
    23     8    38 1   
    24     8    39 1   
    25     8    40 1   
    26     9    41 1   
    27     9    42 1   
    28     9    43 1   
    29     9    63 1   
    30    10    11 ar  
    31    10    20 ar  
    32    10    63 1   
    33    11    12 1   
    34    11    18 ar  
    35    12    13 1   
    36    13    14 1   
    37    13    17 1   
    38    13    44 1   
    39    14    15 1   
    40    14    45 1   
    41    14    46 1   
    42    15    16 1   
    43    15    47 1   
    44    15    48 1   
    45    16    17 1   
    46    16    49 1   
    47    16    50 1   
    48    17    51 1   
    49    17    52 1   
    50    18    53 1   
    51    19    20 ar  
    52    19    54 1   
    53    20    55 1   
    54    21    22 1   
    55    22    23 1   
    56    23    56 1   
    57    23    57 1   
    58    24    25 1   
    59    24    29 2   
    60    26    27 1   
    61    26    30 1   
    62    26    58 1   
    63    27    28 1   
    64    28    59 1   
    65    30    60 1   
    66    30    61 1   
    67    30    62 1   
@<TRIPOS>SUBSTRUCTURE
     1 D0B         1 TEMP              0 ****  ****    0 ROOT
