@<TRIPOS>MOLECULE
D0B
   64    67     1     0     0
SMALL
bcc


@<TRIPOS>ATOM
      1 C10          2.7220    -1.9200     0.1160 ca         1 D0B      -0.114500
      2 C13          1.4110    -2.5550    -0.0350 cc         1 D0B       0.379800
      3 C15         -2.4630    -1.1690    -0.4770 c3         1 D0B      -0.178400
      4 C17         -5.6250     0.8690    -1.0940 c6         1 D0B       0.064000
      5 C20         -3.8630     1.1700     0.5170 c6         1 D0B       0.064000
      6 C21         -0.3300    -3.9010     0.0390 cd         1 D0B      -0.138300
      7 C22          0.9820    -3.8140     0.4350 cc         1 D0B      -0.301300
      8 C24         -4.4900     2.1780     2.7270 c3         1 D0B      -0.103600
      9 C01          7.4950    -0.6460     1.0390 c3         1 D0B       0.122700
     10 C02          5.2120    -0.6660     0.4170 ca         1 D0B       0.113100
     11 C03          4.1030     0.0660    -0.0610 ca         1 D0B       0.116100
     12 O02          4.3500     1.3590    -0.3460 os         1 D0B      -0.303900
     13 C04          3.2840     2.2120    -0.7280 c5         1 D0B       0.143100
     14 C05          3.8440     3.5380    -1.2220 c5         1 D0B      -0.095400
     15 C06          2.6300     4.4730    -1.1930 c5         1 D0B      -0.079400
     16 C07          1.6630     3.8800    -0.1360 c5         1 D0B      -0.079400
     17 C08          2.3580     2.6280     0.4130 c5         1 D0B      -0.095400
     18 C09          2.8820    -0.5650    -0.2050 ca         1 D0B      -0.167000
     19 C11          3.8170    -2.6290     0.5820 ca         1 D0B      -0.112000
     20 C12          5.0530    -2.0050     0.7310 ca         1 D0B      -0.194000
     21 N01          0.4230    -1.9390    -0.6690 nd         1 D0B      -0.536800
     22 N02         -0.6150    -2.7620    -0.6160 na         1 D0B       0.107400
     23 C14         -1.8770    -2.3700    -1.2060 c3         1 D0B       0.073300
     24 C16         -3.7770    -0.7330    -1.0950 c          1 D0B       0.680100
     25 N03         -4.3580     0.3750    -0.5890 n          1 D0B      -0.476800
     26 C18         -6.6540     0.9060     0.0310 c6         1 D0B       0.129100
     27 O03         -6.1540     1.6640     1.1230 os         1 D0B      -0.407600
     28 C19         -4.9060     1.2240     1.6280 c6         1 D0B       0.129100
     29 O04         -4.2730    -1.3680    -2.0170 o          1 D0B      -0.610100
     30 C23         -7.1230    -0.4810     0.4470 c3         1 D0B      -0.103600
     31 H01         -2.6150    -1.4210     0.5760 hc         1 D0B       0.076700
     32 H19         -1.7440    -0.3470    -0.4960 hc         1 D0B       0.076700
     33 H21         -5.9730     0.2410    -1.9100 h1         1 D0B       0.064450
     34 H25         -2.9360     0.7650     0.9150 h1         1 D0B       0.064450
     35 H24         -3.6490     2.1840     0.1600 h1         1 D0B       0.064450
     36 H26         -1.0660    -4.6770     0.1760 h4         1 D0B       0.171000
     37 H27          1.5390    -4.5490     0.9920 ha         1 D0B       0.163000
     38 H30         -4.3470     3.1880     2.3400 hc         1 D0B       0.045867
     39 H28         -5.2380     2.2160     3.5190 hc         1 D0B       0.045867
     40 H29         -3.5500     1.8520     3.1740 hc         1 D0B       0.045867
     41 H02          8.3000     0.0840     1.0670 h1         1 D0B       0.038367
     42 H03          7.3280    -1.0250     2.0500 h1         1 D0B       0.038367
     43 H04          7.8000    -1.4790     0.3990 h1         1 D0B       0.038367
     44 H05          2.7000     1.7470    -1.5330 h1         1 D0B       0.047700
     45 H07          4.6120     3.8820    -0.5240 hc         1 D0B       0.056950
     46 H06          4.3020     3.4630    -2.2090 hc         1 D0B       0.056950
     47 H08          2.9230     5.4950    -0.9550 hc         1 D0B       0.042450
     48 H09          2.1480     4.5040    -2.1710 hc         1 D0B       0.042450
     49 H10          1.4360     4.5890     0.6590 hc         1 D0B       0.042450
     50 H11          0.7130     3.6130    -0.6010 hc         1 D0B       0.042450
     51 H12          1.6510     1.8530     0.7120 hc         1 D0B       0.056950
     52 H13          2.9680     2.8740     1.2860 hc         1 D0B       0.056950
     53 H14          2.0200    -0.0190    -0.5620 ha         1 D0B       0.153000
     54 H15          3.7300    -3.6780     0.8310 ha         1 D0B       0.132000
     55 H16          5.8870    -2.5880     1.0970 ha         1 D0B       0.135000
     56 H17         -2.5420    -3.2290    -1.1480 h1         1 D0B       0.077200
     57 H18         -1.7140    -2.1480    -2.2600 h1         1 D0B       0.077200
     58 H22         -7.5200     1.4680    -0.3320 h1         1 D0B       0.058700
     59 H23         -5.0010     0.2120     2.0480 h1         1 D0B       0.058700
     60 H32         -6.3070    -1.1300     0.7660 hc         1 D0B       0.045867
     61 H33         -7.8400    -0.4140     1.2650 hc         1 D0B       0.045867
     62 H31         -7.6200    -0.9700    -0.3920 hc         1 D0B       0.045867
     63 O01          6.3610     0.0260     0.5320 os         1 D0B      -0.296900
     64 H20         -5.4760     1.8790    -1.4890 h1         1 D0B       0.064450
@<TRIPOS>BOND
     1     1     2 1   
     2     1    18 ar  
     3     1    19 ar  
     4     2     7 1   
     5     2    21 2   
     6     3    23 1   
     7     3    24 1   
     8     3    31 1   
     9     3    32 1   
    10     4    25 1   
    11     4    26 1   
    12     4    33 1   
    13     4    64 1   
    14     5    25 1   
    15     5    28 1   
    16     5    34 1   
    17     5    35 1   
    18     6     7 2   
    19     6    22 1   
    20     6    36 1   
    21     7    37 1   
    22     8    28 1   
    23     8    38 1   
    24     8    39 1   
    25     8    40 1   
    26     9    41 1   
    27     9    42 1   
    28     9    43 1   
    29     9    63 1   
    30    10    11 ar  
    31    10    20 ar  
    32    10    63 1   
    33    11    12 1   
    34    11    18 ar  
    35    12    13 1   
    36    13    14 1   
    37    13    17 1   
    38    13    44 1   
    39    14    15 1   
    40    14    45 1   
    41    14    46 1   
    42    15    16 1   
    43    15    47 1   
    44    15    48 1   
    45    16    17 1   
    46    16    49 1   
    47    16    50 1   
    48    17    51 1   
    49    17    52 1   
    50    18    53 1   
    51    19    20 ar  
    52    19    54 1   
    53    20    55 1   
    54    21    22 1   
    55    22    23 1   
    56    23    56 1   
    57    23    57 1   
    58    24    25 1   
    59    24    29 2   
    60    26    27 1   
    61    26    30 1   
    62    26    58 1   
    63    27    28 1   
    64    28    59 1   
    65    30    60 1   
    66    30    61 1   
    67    30    62 1   
@<TRIPOS>SUBSTRUCTURE
     1 D0B         1 TEMP              0 ****  ****    0 ROOT
