@<TRIPOS>MOLECULE
D0C
   22    22     1     0     0
SMALL
bcc


@<TRIPOS>ATOM
      1 N           29.9830   -22.0150    -9.7520 n8         1 D0C      -0.868800
      2 CA          29.5590   -20.8360    -9.0100 c3         1 D0C       0.019500
      3 C           29.7770   -19.5770    -9.8780 c          1 D0C       0.937600
      4 O           30.3820   -18.6200    -9.3620 o          1 D0C      -0.833300
      5 CB          28.0820   -20.9130    -8.5670 c3         1 D0C      -0.057100
      6 CG          27.6330   -19.7100    -7.7920 ca         1 D0C      -0.024300
      7 CD1         26.9090   -18.6880    -8.3990 ca         1 D0C      -0.105500
      8 CD2         27.9720   -19.5620    -6.4480 ca         1 D0C      -0.105500
      9 CE1         26.5330   -17.5500    -7.6980 ca         1 D0C      -0.126500
     10 CE2         27.6090   -18.4330    -5.7290 ca         1 D0C      -0.126500
     11 CZ          26.8900   -17.4330    -6.3650 ca         1 D0C       0.018400
     12 CL          26.4300   -16.0130    -5.4770 cl         1 D0C      -0.162400
     13 OXT         29.2940   -19.6300   -11.0300 o          1 D0C      -0.833300
     14 H           29.7000   -22.8540    -9.2580 hn         1 D0C       0.317800
     15 H2          29.4880   -22.0240   -10.6360 hn         1 D0C       0.317800
     16 HA          30.1760   -20.7590    -8.1100 h1         1 D0C       0.048700
     17 HB2         27.4600   -21.0370    -9.4570 hc         1 D0C       0.027200
     18 HB3         27.9530   -21.8130    -7.9570 hc         1 D0C       0.027200
     19 HD1         26.6330   -18.7750    -9.4430 ha         1 D0C       0.136000
     20 HD2         28.5320   -20.3430    -5.9470 ha         1 D0C       0.136000
     21 HE1         25.9680   -16.7690    -8.1880 ha         1 D0C       0.129500
     22 HE2         27.8830   -18.3360    -4.6870 ha         1 D0C       0.129500
@<TRIPOS>BOND
     1     1     2 1   
     2     1    14 1   
     3     1    15 1   
     4     2     3 1   
     5     2     5 1   
     6     2    16 1   
     7     3     4 1   
     8     3    13 1   
     9     5     6 1   
    10     5    17 1   
    11     5    18 1   
    12     6     7 ar  
    13     6     8 ar  
    14     7     9 ar  
    15     7    19 1   
    16     8    10 ar  
    17     8    20 1   
    18     9    11 ar  
    19     9    21 1   
    20    10    11 ar  
    21    10    22 1   
    22    11    12 1   
@<TRIPOS>SUBSTRUCTURE
     1 D0C         1 TEMP              0 ****  ****    0 ROOT
