@<TRIPOS>MOLECULE
D0C
   22    22     1     0     0
SMALL
No Charge or Current Charge


@<TRIPOS>ATOM
      1 N           29.9970   -22.1490    -9.6100 n8         1 D0C      -0.868800
      2 CA          29.5640   -20.8040    -9.0690 c3         1 D0C       0.019500
      3 C           29.8590   -19.5300    -9.9760 c          1 D0C       0.937600
      4 O           30.6790   -18.7040    -9.5830 o          1 D0C      -0.833300
      5 CB          28.0700   -20.8710    -8.6570 c3         1 D0C      -0.057100
      6 CG          27.6350   -19.6670    -7.8300 ca         1 D0C      -0.024300
      7 CD1         26.8530   -18.6480    -8.4090 ca         1 D0C      -0.105500
      8 CD2         28.0130   -19.5640    -6.4760 ca         1 D0C      -0.105500
      9 CE1         26.4540   -17.5380    -7.6430 ca         1 D0C      -0.126500
     10 CE2         27.6140   -18.4540    -5.7100 ca         1 D0C      -0.126500
     11 CZ          26.8350   -17.4430    -6.2950 ca         1 D0C       0.018400
     12 Cl          26.3370   -16.0560    -5.3380 cl         1 D0C      -0.162400
     13 OXT         29.3430   -19.4610   -11.0890 o          1 D0C      -0.833300
     14 H           29.6540   -22.8910    -8.9920 hn         1 D0C       0.317800
     15 H2          29.5230   -22.3150   -10.5040 hn         1 D0C       0.317800
     16 HA          30.1390   -20.6530    -8.1460 h1         1 D0C       0.048700
     17 HB2         27.4480   -20.9650    -9.5560 hc         1 D0C       0.027200
     18 HB3         27.8960   -21.7840    -8.0730 hc         1 D0C       0.027200
     19 HD1         26.5550   -18.7140    -9.4540 ha         1 D0C       0.136000
     20 HD2         28.6150   -20.3460    -6.0180 ha         1 D0C       0.136000
     21 HE1         25.8510   -16.7530    -8.0950 ha         1 D0C       0.129500
     22 HE2         27.9080   -18.3800    -4.6660 ha         1 D0C       0.129500
@<TRIPOS>BOND
     1     1     2 1   
     2     1    14 1   
     3     1    15 1   
     4     2     3 1   
     5     2     5 1   
     6     2    16 1   
     7     3     4 1   
     8     3    13 1   
     9     5     6 1   
    10     5    17 1   
    11     5    18 1   
    12     6     7 ar  
    13     6     8 ar  
    14     7     9 ar  
    15     7    19 1   
    16     8    10 ar  
    17     8    20 1   
    18     9    11 ar  
    19     9    21 1   
    20    10    11 ar  
    21    10    22 1   
    22    11    12 1   
@<TRIPOS>SUBSTRUCTURE
     1 D0C         1 TEMP              0 ****  ****    0 ROOT
