@<TRIPOS>MOLECULE
D0D
   51    54     1     0     0
SMALL
abcg2


@<TRIPOS>ATOM
      1 N1          16.4060     1.9270    49.1690 nu         1 D0D      -0.918100
      2 N3          24.2230    -0.7650    54.1890 nb         1 D0D      -0.283000
      3 C4          20.3360    -0.0260    51.4310 cp         1 D0D      -0.062000
      4 C5          21.6660     0.2280    51.6960 ca         1 D0D      -0.048000
      5 C6          19.6720     0.5690    50.2580 cp         1 D0D      -0.051000
      6 C7          20.3410     0.6940    49.0420 ca         1 D0D       0.346900
      7 C8          18.5380     1.6110    48.0190 ca         1 D0D       0.415000
      8 C10         18.3450     0.9860    50.2940 ca         1 D0D      -0.067000
      9 C13         23.6980    -0.1610    53.1370 ca         1 D0D       0.410900
     10 C15         26.7430    -0.3610    52.3830 ca         1 D0D      -0.092300
     11 C17         27.3430    -2.1850    50.9200 ca         1 D0D      -0.109500
     12 C20         27.8070    -0.7020    53.2120 ca         1 D0D      -0.095500
     13 C21         26.3780     2.0730    51.9380 c3         1 D0D      -0.108100
     14 CL          17.8620     2.2680    46.5650 cl         1 D0D      -0.158000
     15 N           19.7770     1.2000    47.9560 nb         1 D0D      -0.643000
     16 C9          17.7460     1.5270    49.1660 ca         1 D0D       0.256000
     17 S           15.8470     3.1910    50.1150 s6         1 D0D       1.204100
     18 O1          15.0070     4.0210    49.2710 o          1 D0D      -0.526500
     19 C11         14.8090     2.3810    51.3020 c3         1 D0D      -0.350100
     20 O           16.9900     3.7700    50.7970 o          1 D0D      -0.526500
     21 C3          19.6240    -0.8850    52.2950 ca         1 D0D      -0.073000
     22 C2          20.2330    -1.4700    53.3710 ca         1 D0D      -0.097000
     23 C           22.3120    -0.3650    52.7930 ca         1 D0D      -0.182000
     24 C12         23.4270    -1.5590    54.9150 ca         1 D0D       0.179900
     25 N2          22.1690    -1.8310    54.7190 nb         1 D0D      -0.217000
     26 C1          21.5940    -1.2280    53.6460 ca         1 D0D       0.063000
     27 N4          24.4880     0.6390    52.4140 nu         1 D0D      -0.921100
     28 C14         25.8930     0.8500    52.7090 c3         1 D0D       0.290800
     29 C19         28.6370    -1.7700    52.8980 ca         1 D0D      -0.109500
     30 C18         28.4050    -2.5170    51.7510 ca         1 D0D      -0.106000
     31 C16         26.5180    -1.1120    51.2340 ca         1 D0D      -0.095500
     32 H1          15.9070     1.8480    48.2890 hn         1 D0D       0.512000
     33 H2          22.2010     0.9110    51.0480 ha         1 D0D       0.108000
     34 H3          21.3640     0.3540    48.9320 h4         1 D0D       0.030100
     35 H4          17.7670     0.8890    51.2050 ha         1 D0D       0.128000
     36 H6          27.9880    -0.1280    54.1140 ha         1 D0D       0.109500
     37 H7          27.4260     2.2620    52.1650 hc         1 D0D       0.047700
     38 H8          26.2910     1.9200    50.8610 hc         1 D0D       0.047700
     39 H9          25.8050     2.9590    52.2110 hc         1 D0D       0.047700
     40 H10         14.3750     3.1470    51.9430 h1         1 D0D       0.105700
     41 H11         14.0220     1.8450    50.7760 h1         1 D0D       0.105700
     42 H12         15.4050     1.6910    51.8950 h1         1 D0D       0.105700
     43 H13         18.5840    -1.1070    52.0930 ha         1 D0D       0.116000
     44 H14         19.6850    -2.1360    54.0250 ha         1 D0D       0.138000
     45 H15         23.9030    -2.0310    55.7690 h5         1 D0D       0.045100
     46 H16         24.1200     1.0820    51.5890 hn         1 D0D       0.497000
     47 H17         25.9880     1.0540    53.7780 h1         1 D0D       0.081700
     48 H18         29.4580    -2.0250    53.5560 ha         1 D0D       0.112500
     49 H19         29.0470    -3.3540    51.5060 ha         1 D0D       0.113000
     50 H20         25.6920    -0.8670    50.5780 ha         1 D0D       0.109500
     51 H5          27.1540    -2.7630    50.0250 ha         1 D0D       0.112500
@<TRIPOS>BOND
     1     1    16 1   
     2     1    17 1   
     3     1    32 1   
     4     2     9 ar  
     5     2    24 ar  
     6     3     4 ar  
     7     3     5 1   
     8     3    21 ar  
     9     4    23 ar  
    10     4    33 1   
    11     5     6 ar  
    12     5     8 ar  
    13     6    15 ar  
    14     6    34 1   
    15     7    14 1   
    16     7    15 ar  
    17     7    16 ar  
    18     8    16 ar  
    19     8    35 1   
    20     9    23 ar  
    21     9    27 1   
    22    10    12 ar  
    23    10    28 1   
    24    10    31 ar  
    25    11    30 ar  
    26    11    31 ar  
    27    11    51 1   
    28    12    29 ar  
    29    12    36 1   
    30    13    28 1   
    31    13    37 1   
    32    13    38 1   
    33    13    39 1   
    34    17    18 2   
    35    17    19 1   
    36    17    20 2   
    37    19    40 1   
    38    19    41 1   
    39    19    42 1   
    40    21    22 ar  
    41    21    43 1   
    42    22    26 ar  
    43    22    44 1   
    44    23    26 ar  
    45    24    25 ar  
    46    24    45 1   
    47    25    26 ar  
    48    27    28 1   
    49    27    46 1   
    50    28    47 1   
    51    29    30 ar  
    52    29    48 1   
    53    30    49 1   
    54    31    50 1   
@<TRIPOS>SUBSTRUCTURE
     1 D0D         1 TEMP              0 ****  ****    0 ROOT
