@<TRIPOS>MOLECULE
D0D
   51    54     1     0     0
SMALL
No Charge or Current Charge


@<TRIPOS>ATOM
      1 N1          16.6520     2.5760    49.2790 nu         1 D0D      -0.918100
      2 N3          24.4300    -0.0820    54.5970 nb         1 D0D      -0.283000
      3 C4          20.5080     0.5590    51.7690 cp         1 D0D      -0.062000
      4 C5          21.8950     0.7260    52.0060 ca         1 D0D      -0.048000
      5 C6          19.8710     1.0680    50.5120 cp         1 D0D      -0.051000
      6 C7          20.5640     1.0540    49.2730 ca         1 D0D       0.346900
      7 C8          18.7770     1.9870    48.1420 ca         1 D0D       0.415000
      8 C10         18.5490     1.5840    50.5130 ca         1 D0D      -0.067000
      9 C13         23.8830     0.3910    53.4630 ca         1 D0D       0.410900
     10 C15         26.6070    -0.5330    52.1430 ca         1 D0D      -0.092300
     11 C17         26.5890    -2.3930    50.5540 ca         1 D0D      -0.109500
     12 C20         27.3490    -1.3290    53.0410 ca         1 D0D      -0.095500
     13 C21         26.7930     1.9430    51.5630 c3         1 D0D      -0.108100
     14 Cl          18.1580     2.5470    46.5880 cl         1 D0D      -0.158000
     15 N           20.0410     1.5010    48.1100 nb         1 D0D      -0.643000
     16 C9          17.9670     2.0530    49.3160 ca         1 D0D       0.256000
     17 S           15.3580     2.2790    50.2720 s6         1 D0D       1.204100
     18 O1          14.2150     2.8680    49.5760 o          1 D0D      -0.526500
     19 C11         15.1820     0.5080    50.2770 c3         1 D0D      -0.350100
     20 O           15.7410     2.7430    51.6060 o          1 D0D      -0.526500
     21 C3          19.7430    -0.1070    52.7560 ca         1 D0D      -0.073000
     22 C2          20.3400    -0.5900    53.9320 ca         1 D0D      -0.097000
     23 C           22.5010     0.2440    53.1900 ca         1 D0D      -0.182000
     24 C12         23.6000    -0.7010    55.4550 ca         1 D0D       0.179900
     25 N2          22.2770    -0.8930    55.2950 nb         1 D0D      -0.217000
     26 C1          21.7150    -0.4220    54.1620 ca         1 D0D       0.063000
     27 N4          24.7540     1.0300    52.5800 nu         1 D0D      -0.921100
     28 C14         26.2160     0.8960    52.5330 c3         1 D0D       0.290800
     29 C19         27.7110    -2.6440    52.6970 ca         1 D0D      -0.109500
     30 C18         27.3320    -3.1760    51.4540 ca         1 D0D      -0.106000
     31 C16         26.2280    -1.0780    50.8970 ca         1 D0D      -0.095500
     32 H1          16.2540     2.8170    48.3770 hn         1 D0D       0.512000
     33 H2          22.4900     1.2460    51.2620 ha         1 D0D       0.108000
     34 H3          21.5770     0.6580    49.2120 h4         1 D0D       0.030100
     35 H4          18.0020     1.6340    51.4470 ha         1 D0D       0.128000
     36 H6          27.6460    -0.9300    54.0080 ha         1 D0D       0.109500
     37 H7          27.8850     1.8570    51.5200 hc         1 D0D       0.047700
     38 H8          26.4000     1.8110    50.5480 hc         1 D0D       0.047700
     39 H9          26.5460     2.9570    51.9000 hc         1 D0D       0.047700
     40 H10         14.3120     0.2690    50.8970 h1         1 D0D       0.105700
     41 H11         15.0320     0.1870    49.2420 h1         1 D0D       0.105700
     42 H12         16.0960     0.0800    50.6990 h1         1 D0D       0.105700
     43 H13         18.6780    -0.2690    52.6060 ha         1 D0D       0.116000
     44 H14         19.7280    -1.1020    54.6700 ha         1 D0D       0.138000
     45 H15         24.0430    -1.0860    56.3720 h5         1 D0D       0.045100
     46 H16         24.3150     1.4270    51.7550 hn         1 D0D       0.497000
     47 H17         26.6330     1.1150    53.5270 h1         1 D0D       0.081700
     48 H18         28.2830    -3.2500    53.3960 ha         1 D0D       0.112500
     49 H19         27.6110    -4.1930    51.1880 ha         1 D0D       0.113000
     50 H20         25.6470    -0.4860    50.1950 ha         1 D0D       0.109500
     51 H5          26.2920    -2.8040    49.5920 ha         1 D0D       0.112500
@<TRIPOS>BOND
     1     1    16 1   
     2     1    17 1   
     3     1    32 1   
     4     2     9 ar  
     5     2    24 ar  
     6     3     4 ar  
     7     3     5 1   
     8     3    21 ar  
     9     4    23 ar  
    10     4    33 1   
    11     5     6 ar  
    12     5     8 ar  
    13     6    15 ar  
    14     6    34 1   
    15     7    14 1   
    16     7    15 ar  
    17     7    16 ar  
    18     8    16 ar  
    19     8    35 1   
    20     9    23 ar  
    21     9    27 1   
    22    10    12 ar  
    23    10    28 1   
    24    10    31 ar  
    25    11    30 ar  
    26    11    31 ar  
    27    11    51 1   
    28    12    29 ar  
    29    12    36 1   
    30    13    28 1   
    31    13    37 1   
    32    13    38 1   
    33    13    39 1   
    34    17    18 2   
    35    17    19 1   
    36    17    20 2   
    37    19    40 1   
    38    19    41 1   
    39    19    42 1   
    40    21    22 ar  
    41    21    43 1   
    42    22    26 ar  
    43    22    44 1   
    44    23    26 ar  
    45    24    25 ar  
    46    24    45 1   
    47    25    26 ar  
    48    27    28 1   
    49    27    46 1   
    50    28    47 1   
    51    29    30 ar  
    52    29    48 1   
    53    30    49 1   
    54    31    50 1   
@<TRIPOS>SUBSTRUCTURE
     1 D0D         1 TEMP              0 ****  ****    0 ROOT
