@<TRIPOS>MOLECULE
D0E
   58    61     1     0     0
SMALL
abcg2


@<TRIPOS>ATOM
      1 C10         -2.3250     1.8120     0.0620 ca         1 D0E      -0.114500
      2 C13         -1.0340     2.4950    -0.0430 cc         1 D0E       0.315500
      3 C15          2.9710     1.3680    -0.0510 c3         1 D0E      -0.179400
      4 C17          4.5800    -0.4870     1.4730 c6         1 D0E       0.060000
      5 C20          6.3480    -0.3930    -0.1850 c6         1 D0E       0.060000
      6 C21          0.6340     3.9310     0.0290 cd         1 D0E      -0.172000
      7 C22         -0.6960     3.8070     0.3500 cc         1 D0E      -0.218000
      8 C01         -7.1010     0.3920     0.7260 c3         1 D0E       0.145900
      9 C02         -4.7820     0.4740     0.2590 ca         1 D0E       0.113100
     10 C03         -3.6230    -0.2270    -0.1380 ca         1 D0E       0.116100
     11 O02         -3.8100    -1.5330    -0.4050 os         1 D0E      -0.327100
     12 C04         -2.7050    -2.3520    -0.7470 c5         1 D0E       0.166300
     13 C05         -3.2070    -3.6950    -1.2580 c5         1 D0E      -0.095400
     14 C06         -1.9680    -4.5940    -1.1840 c5         1 D0E      -0.078900
     15 C07         -1.0600    -3.9740    -0.0920 c5         1 D0E      -0.078900
     16 C08         -1.8070    -2.7390     0.4270 c5         1 D0E      -0.095400
     17 C09         -2.4190     0.4450    -0.2310 ca         1 D0E      -0.149000
     18 C11         -3.4690     2.4900     0.4510 ca         1 D0E      -0.095000
     19 C12         -4.6890     1.8250     0.5490 ca         1 D0E      -0.176000
     20 N01          0.0210     1.8830    -0.5620 nd         1 D0E      -0.535800
     21 N02          1.0140     2.7610    -0.5140 na         1 D0E       0.128800
     22 C14          2.3300     2.3880    -0.9830 c3         1 D0E       0.101600
     23 C16          4.3390     0.9450    -0.5500 c          1 D0E       0.612100
     24 N03          5.0150     0.0440     0.1930 n          1 D0E      -0.412800
     25 C18          4.7390    -1.9980     1.4840 c6         1 D0E       0.137100
     26 O03          6.0550    -2.3840     1.1650 os         1 D0E      -0.443000
     27 C19          6.4330    -1.9060    -0.1080 c6         1 D0E       0.137100
     28 O04          4.7930     1.4080    -1.5880 o          1 D0E      -0.608100
     29 H19          3.0530     1.7940     0.9520 hc         1 D0E       0.075700
     30 H01          2.3170     0.4960     0.0360 hc         1 D0E       0.075700
     31 H20          3.5380    -0.2450     1.6660 h1         1 D0E       0.062700
     32 H26          6.5720    -0.0640    -1.1970 h1         1 D0E       0.062700
     33 H27          7.0860     0.0610     0.4850 h1         1 D0E       0.062700
     34 H28          1.3220     4.7520     0.1470 h4         1 D0E       0.153000
     35 H29         -1.3220     4.5570     0.8050 ha         1 D0E       0.145000
     36 H02         -7.0210     0.8060     1.7340 h1         1 D0E       0.038700
     37 H03         -7.3820     1.1950     0.0390 h1         1 D0E       0.038700
     38 H04         -7.8820    -0.3640     0.7180 h1         1 D0E       0.038700
     39 H05         -2.1070    -1.8700    -1.5320 h1         1 D0E       0.047700
     40 H06         -3.9890    -4.0610    -0.5860 hc         1 D0E       0.056950
     41 H07         -3.6330    -3.6340    -2.2600 hc         1 D0E       0.056950
     42 H08         -2.2390    -5.6240    -0.9570 hc         1 D0E       0.042700
     43 H09         -1.4500    -4.6100    -2.1440 hc         1 D0E       0.042700
     44 H11         -0.8470    -4.6760     0.7140 hc         1 D0E       0.042700
     45 H10         -0.0980    -3.6840    -0.5180 hc         1 D0E       0.042700
     46 H13         -1.1330    -1.9440     0.7470 hc         1 D0E       0.056950
     47 H12         -2.4400    -2.9980     1.2800 hc         1 D0E       0.056950
     48 H14         -1.5200    -0.0770    -0.5270 ha         1 D0E       0.135000
     49 H15         -3.4350     3.5470     0.6780 ha         1 D0E       0.114000
     50 H16         -5.5630     2.3840     0.8540 ha         1 D0E       0.117000
     51 H18          2.9250     3.2970    -1.0380 h1         1 D0E       0.078200
     52 H17          2.2340     1.9930    -1.9940 h1         1 D0E       0.078200
     53 H22          4.5160    -2.3830     2.4800 h1         1 D0E       0.055200
     54 H23          4.0210    -2.4420     0.7800 h1         1 D0E       0.055200
     55 H24          5.7990    -2.3460    -0.8900 h1         1 D0E       0.055200
     56 H25          7.4600    -2.2270    -0.2860 h1         1 D0E       0.055200
     57 O01         -5.9110    -0.2560     0.3250 os         1 D0E      -0.321100
     58 H21          5.1750    -0.0400     2.2760 h1         1 D0E       0.062700
@<TRIPOS>BOND
     1     1     2 1   
     2     1    17 ar  
     3     1    18 ar  
     4     2     7 1   
     5     2    20 2   
     6     3    22 1   
     7     3    23 1   
     8     3    29 1   
     9     3    30 1   
    10     4    24 1   
    11     4    25 1   
    12     4    31 1   
    13     4    58 1   
    14     5    24 1   
    15     5    27 1   
    16     5    32 1   
    17     5    33 1   
    18     6     7 2   
    19     6    21 1   
    20     6    34 1   
    21     7    35 1   
    22     8    36 1   
    23     8    37 1   
    24     8    38 1   
    25     8    57 1   
    26     9    10 ar  
    27     9    19 ar  
    28     9    57 1   
    29    10    11 1   
    30    10    17 ar  
    31    11    12 1   
    32    12    13 1   
    33    12    16 1   
    34    12    39 1   
    35    13    14 1   
    36    13    40 1   
    37    13    41 1   
    38    14    15 1   
    39    14    42 1   
    40    14    43 1   
    41    15    16 1   
    42    15    44 1   
    43    15    45 1   
    44    16    46 1   
    45    16    47 1   
    46    17    48 1   
    47    18    19 ar  
    48    18    49 1   
    49    19    50 1   
    50    20    21 1   
    51    21    22 1   
    52    22    51 1   
    53    22    52 1   
    54    23    24 1   
    55    23    28 2   
    56    25    26 1   
    57    25    53 1   
    58    25    54 1   
    59    26    27 1   
    60    27    55 1   
    61    27    56 1   
@<TRIPOS>SUBSTRUCTURE
     1 D0E         1 TEMP              0 ****  ****    0 ROOT
