@<TRIPOS>MOLECULE
D0E
   58    61     1     0     0
SMALL
No Charge or Current Charge


@<TRIPOS>ATOM
      1 C10         -2.2430     1.5740     0.0020 ca         1 D0E      -0.114500
      2 C13         -0.8880     2.1610    -0.0370 cc         1 D0E       0.315500
      3 C15          3.3880     1.3400    -0.2150 c3         1 D0E      -0.179400
      4 C17          5.4510    -0.1180     1.3560 c6         1 D0E       0.060000
      5 C20          7.0040    -0.1150    -0.6550 c6         1 D0E       0.060000
      6 C21          0.8340     3.5310     0.3600 cd         1 D0E      -0.172000
      7 C22         -0.4790     3.3220     0.6490 cc         1 D0E      -0.218000
      8 C01         -7.2130     0.4070     0.8010 c3         1 D0E       0.145900
      9 C02         -4.8540     0.4350     0.0540 ca         1 D0E       0.113100
     10 C03         -3.8240    -0.1780    -0.6950 ca         1 D0E       0.116100
     11 O02         -4.1030    -1.3190    -1.4300 os         1 D0E      -0.327100
     12 C04         -3.2760    -2.4200    -0.9660 c5         1 D0E       0.166300
     13 C05         -3.6340    -3.6570    -1.8170 c5         1 D0E      -0.095400
     14 C06         -2.9630    -4.7590    -0.9630 c5         1 D0E      -0.078900
     15 C07         -3.4340    -4.4080     0.4800 c5         1 D0E      -0.078900
     16 C08         -3.7550    -2.8780     0.4440 c5         1 D0E      -0.095400
     17 C09         -2.5390     0.4020    -0.7330 ca         1 D0E      -0.149000
     18 C11         -3.2760     2.1610     0.7660 ca         1 D0E      -0.095000
     19 C12         -4.5670     1.6040     0.7900 ca         1 D0E      -0.176000
     20 N01          0.0980     1.6310    -0.7410 nd         1 D0E      -0.535800
     21 N02          1.1670     2.4820    -0.4970 na         1 D0E       0.128800
     22 C14          2.4880     2.2320    -1.0980 c3         1 D0E       0.101600
     23 C16          4.7760     1.0480    -0.8010 c          1 D0E       0.612100
     24 N03          5.6330     0.1580    -0.1100 n          1 D0E      -0.412800
     25 C18          6.3090    -1.2820     1.9170 c6         1 D0E       0.137100
     26 O03          7.6670    -1.1820     1.4550 os         1 D0E      -0.443000
     27 C19          7.7610    -1.2840     0.0240 c6         1 D0E       0.137100
     28 O04          5.1200     1.5380    -1.8690 o          1 D0E      -0.608100
     29 H19          3.5210     1.7680     0.7850 hc         1 D0E       0.075700
     30 H01          2.9080     0.3820     0.0130 hc         1 D0E       0.075700
     31 H20          4.3990    -0.3520     1.5690 h1         1 D0E       0.062700
     32 H26          6.9330    -0.3280    -1.7310 h1         1 D0E       0.062700
     33 H27          7.6060     0.7980    -0.5490 h1         1 D0E       0.062700
     34 H28          1.5320     4.2990     0.6740 h4         1 D0E       0.153000
     35 H29         -1.0980     3.9360     1.2920 ha         1 D0E       0.145000
     36 H02         -6.9820     0.4260     1.8740 h1         1 D0E       0.038700
     37 H03         -7.4410     1.4280     0.4700 h1         1 D0E       0.038700
     38 H04         -8.1120    -0.2050     0.6580 h1         1 D0E       0.038700
     39 H05         -2.2040    -2.1880    -1.0110 h1         1 D0E       0.047700
     40 H06         -4.7170    -3.8060    -1.9040 hc         1 D0E       0.056950
     41 H07         -3.2180    -3.6020    -2.8300 hc         1 D0E       0.056950
     42 H08         -3.2660    -5.7670    -1.2680 hc         1 D0E       0.042700
     43 H09         -1.8700    -4.7120    -1.0450 hc         1 D0E       0.042700
     44 H11         -4.3260    -4.9830     0.7570 hc         1 D0E       0.042700
     45 H10         -2.6620    -4.6480     1.2200 hc         1 D0E       0.042700
     46 H13         -3.2420    -2.3320     1.2440 hc         1 D0E       0.056950
     47 H12         -4.8300    -2.7080     0.5770 hc         1 D0E       0.056950
     48 H14         -1.7700    -0.0570    -1.3490 ha         1 D0E       0.135000
     49 H15         -3.0970     3.0610     1.3470 ha         1 D0E       0.114000
     50 H16         -5.3300     2.0970     1.3850 ha         1 D0E       0.117000
     51 H18          2.9780     3.1990    -1.2670 h1         1 D0E       0.078200
     52 H17          2.3420     1.7560    -2.0750 h1         1 D0E       0.078200
     53 H22          6.2970    -1.2600     3.0160 h1         1 D0E       0.055200
     54 H23          5.8880    -2.2450     1.5940 h1         1 D0E       0.055200
     55 H24          7.3330    -2.2450    -0.2990 h1         1 D0E       0.055200
     56 H25          8.8190    -1.2670    -0.2730 h1         1 D0E       0.055200
     57 O01         -6.1140    -0.1410     0.0520 os         1 D0E      -0.321100
     58 H21          5.6970     0.7970     1.9150 h1         1 D0E       0.062700
@<TRIPOS>BOND
     1     1     2 1   
     2     1    17 ar  
     3     1    18 ar  
     4     2     7 1   
     5     2    20 2   
     6     3    22 1   
     7     3    23 1   
     8     3    29 1   
     9     3    30 1   
    10     4    24 1   
    11     4    25 1   
    12     4    31 1   
    13     4    58 1   
    14     5    24 1   
    15     5    27 1   
    16     5    32 1   
    17     5    33 1   
    18     6     7 2   
    19     6    21 1   
    20     6    34 1   
    21     7    35 1   
    22     8    36 1   
    23     8    37 1   
    24     8    38 1   
    25     8    57 1   
    26     9    10 ar  
    27     9    19 ar  
    28     9    57 1   
    29    10    11 1   
    30    10    17 ar  
    31    11    12 1   
    32    12    13 1   
    33    12    16 1   
    34    12    39 1   
    35    13    14 1   
    36    13    40 1   
    37    13    41 1   
    38    14    15 1   
    39    14    42 1   
    40    14    43 1   
    41    15    16 1   
    42    15    44 1   
    43    15    45 1   
    44    16    46 1   
    45    16    47 1   
    46    17    48 1   
    47    18    19 ar  
    48    18    49 1   
    49    19    50 1   
    50    20    21 1   
    51    21    22 1   
    52    22    51 1   
    53    22    52 1   
    54    23    24 1   
    55    23    28 2   
    56    25    26 1   
    57    25    53 1   
    58    25    54 1   
    59    26    27 1   
    60    27    55 1   
    61    27    56 1   
@<TRIPOS>SUBSTRUCTURE
     1 D0E         1 TEMP              0 ****  ****    0 ROOT
