@<TRIPOS>MOLECULE
D0F
   60    62     1     0     0
SMALL
No Charge or Current Charge


@<TRIPOS>ATOM
      1 O22          3.1750    -8.0780    24.8890 o          1 D0F      -0.596100
      2 C20          3.2120    -6.8680    25.0680 c          1 D0F       0.606100
      3 C21          2.5150    -5.9120    24.0830 c3         1 D0F      -0.154400
      4 C23          1.0410    -5.6620    24.5010 c3         1 D0F      -0.073400
      5 C24          0.2300    -4.6460    23.6370 c6         1 D0F      -0.058700
      6 C29          0.0900    -5.0880    22.1520 c6         1 D0F      -0.071900
      7 C28         -0.7940    -4.0990    21.3520 c6         1 D0F      -0.073900
      8 C27         -0.2480    -2.6530    21.4490 c6         1 D0F      -0.072400
      9 C26         -0.1000    -2.2070    22.9240 c6         1 D0F      -0.073900
     10 C25          0.7860    -3.1950    23.7230 c6         1 D0F      -0.071900
     11 N19          3.8460    -6.3370    26.2130 n          1 D0F      -0.420800
     12 C18          4.0100    -4.8910    26.4830 c5         1 D0F       0.109000
     13 C17          4.5540    -4.8980    27.9330 c5         1 D0F      -0.099400
     14 C16          5.4650    -6.1520    27.9230 c5         1 D0F      -0.082400
     15 C14          4.5700    -7.2020    27.1980 c5         1 D0F       0.023700
     16 C13          3.6910    -7.9530    28.2580 c          1 D0F       0.591100
     17 O15          4.0760    -8.7980    29.0580 o          1 D0F      -0.652100
     18 N5           2.3740    -7.5580    28.1570 ns         1 D0F      -0.455900
     19 C1           1.2630    -8.0180    29.0200 c3         1 D0F      -0.037300
     20 C2          -0.0990    -7.8120    28.2910 c          1 D0F       0.718000
     21 O4          -0.8130    -8.7890    28.1140 o          1 D0F      -0.722000
     22 O3          -0.3370    -6.7110    27.8130 o          1 D0F      -0.722000
     23 C6           1.2940    -7.3130    30.3980 c3         1 D0F      -0.037100
     24 C7           0.2820    -7.8970    31.3760 ca         1 D0F      -0.026300
     25 C12          0.5340    -9.1350    32.0000 ca         1 D0F      -0.094500
     26 C11         -0.3970    -9.6770    32.9030 ca         1 D0F      -0.118500
     27 C10         -1.5860    -8.9840    33.1870 ca         1 D0F      -0.132000
     28 C9          -1.8430    -7.7490    32.5680 ca         1 D0F      -0.118500
     29 C8          -0.9120    -7.2070    31.6650 ca         1 D0F      -0.094500
     30 H1           2.5330    -6.3600    23.0830 hc         1 D0F       0.049700
     31 H2           3.0310    -4.9480    24.0690 hc         1 D0F       0.049700
     32 H3           1.0260    -5.3250    25.5450 hc         1 D0F       0.074700
     33 H4           0.5170    -6.6270    24.5020 hc         1 D0F       0.074700
     34 H5          -0.7780    -4.6390    24.0770 hc         1 D0F       0.059700
     35 H6          -0.3440    -6.0960    22.0980 hc         1 D0F       0.037450
     36 H7           1.0800    -5.1470    21.6780 hc         1 D0F       0.037450
     37 H8          -1.8240    -4.1320    21.7340 hc         1 D0F       0.033950
     38 H9          -0.8420    -4.4100    20.3000 hc         1 D0F       0.033950
     39 H10         -0.9190    -1.9650    20.9170 hc         1 D0F       0.029200
     40 H11          0.7260    -2.5920    20.9450 hc         1 D0F       0.029200
     41 H12          0.3350    -1.1990    22.9660 hc         1 D0F       0.033950
     42 H13         -1.0920    -2.1380    23.3920 hc         1 D0F       0.033950
     43 H14          1.8100    -3.1540    23.3280 hc         1 D0F       0.037450
     44 H15          0.8410    -2.8750    24.7720 hc         1 D0F       0.037450
     45 H16          4.7340    -4.4490    25.7850 h1         1 D0F       0.041200
     46 H17          3.0650    -4.3370    26.4080 h1         1 D0F       0.041200
     47 H18          5.0990    -3.9800    28.1780 hc         1 D0F       0.057700
     48 H19          3.7410    -4.9990    28.6630 hc         1 D0F       0.057700
     49 H20          5.7720    -6.4660    28.9270 hc         1 D0F       0.051200
     50 H21          6.3810    -5.9620    27.3510 hc         1 D0F       0.051200
     51 H22          5.1820    -7.9610    26.6920 h1         1 D0F       0.083700
     52 H23          2.1750    -6.8600    27.4500 hn         1 D0F       0.340500
     53 H24          1.3850    -9.0980    29.1780 h1         1 D0F       0.066700
     54 H26          2.2990    -7.4060    30.8270 hc         1 D0F       0.036200
     55 H27          1.1230    -6.2390    30.2600 hc         1 D0F       0.036200
     56 H28          1.4520    -9.6760    31.7840 ha         1 D0F       0.112000
     57 H29         -0.1970   -10.6330    33.3810 ha         1 D0F       0.093000
     58 H30         -2.3070    -9.4030    33.8850 ha         1 D0F       0.090000
     59 H31         -2.7630    -7.2130    32.7870 ha         1 D0F       0.093000
     60 H32         -1.1200    -6.2520    31.1880 ha         1 D0F       0.112000
@<TRIPOS>BOND
     1     1     2 2   
     2     2     3 1   
     3     2    11 1   
     4     3     4 1   
     5     3    30 1   
     6     3    31 1   
     7     4     5 1   
     8     4    32 1   
     9     4    33 1   
    10     5     6 1   
    11     5    10 1   
    12     5    34 1   
    13     6     7 1   
    14     6    35 1   
    15     6    36 1   
    16     7     8 1   
    17     7    37 1   
    18     7    38 1   
    19     8     9 1   
    20     8    39 1   
    21     8    40 1   
    22     9    10 1   
    23     9    41 1   
    24     9    42 1   
    25    10    43 1   
    26    10    44 1   
    27    11    12 1   
    28    11    15 1   
    29    12    13 1   
    30    12    45 1   
    31    12    46 1   
    32    13    14 1   
    33    13    47 1   
    34    13    48 1   
    35    14    15 1   
    36    14    49 1   
    37    14    50 1   
    38    15    16 1   
    39    15    51 1   
    40    16    17 2   
    41    16    18 1   
    42    18    19 1   
    43    18    52 1   
    44    19    20 1   
    45    19    23 1   
    46    19    53 1   
    47    20    21 1   
    48    20    22 1   
    49    23    24 1   
    50    23    54 1   
    51    23    55 1   
    52    24    25 ar  
    53    24    29 ar  
    54    25    26 ar  
    55    25    56 1   
    56    26    27 ar  
    57    26    57 1   
    58    27    28 ar  
    59    27    58 1   
    60    28    29 ar  
    61    28    59 1   
    62    29    60 1   
@<TRIPOS>SUBSTRUCTURE
     1 D0F         1 TEMP              0 ****  ****    0 ROOT
