@<TRIPOS>MOLECULE
D0F
   60    62     1     0     0
SMALL
bcc


@<TRIPOS>ATOM
      1 O22          3.0610    -7.8390    24.9800 o          1 D0F      -0.596100
      2 C20          3.1680    -6.6320    25.1610 c          1 D0F       0.673100
      3 C21          2.5650    -5.6330    24.2040 c3         1 D0F      -0.154400
      4 C23          1.1210    -5.3180    24.6180 c3         1 D0F      -0.073400
      5 C24          0.3260    -4.4890    23.6100 c6         1 D0F      -0.058700
      6 C29          0.0470    -5.2410    22.3080 c6         1 D0F      -0.071900
      7 C28         -0.8250    -4.4170    21.3650 c6         1 D0F      -0.073900
      8 C27         -0.2010    -3.0540    21.0820 c6         1 D0F      -0.072400
      9 C26          0.0940    -2.3010    22.3750 c6         1 D0F      -0.073900
     10 C25          0.9630    -3.1330    23.3130 c6         1 D0F      -0.071900
     11 N19          3.7810    -6.1460    26.2610 n          1 D0F      -0.487800
     12 C18          4.0270    -4.7390    26.5750 c5         1 D0F       0.109000
     13 C17          4.4840    -4.7870    28.0270 c5         1 D0F      -0.099400
     14 C16          5.2070    -6.1250    28.1200 c5         1 D0F      -0.082400
     15 C14          4.3740    -7.0560    27.2250 c5         1 D0F       0.023700
     16 C13          3.3530    -7.8430    28.0450 c          1 D0F       0.658100
     17 O15          3.6750    -8.9140    28.5490 o          1 D0F      -0.652100
     18 N5           2.1620    -7.2670    28.2090 ns         1 D0F      -0.522900
     19 C1           1.0870    -7.7980    29.0140 c3         1 D0F      -0.037300
     20 C2          -0.2400    -7.1330    28.5690 c          1 D0F       0.928600
     21 O4          -1.2760    -7.7900    28.7500 o          1 D0F      -0.827300
     22 O3          -0.1400    -5.9800    28.0990 o          1 D0F      -0.827300
     23 C6           1.3590    -7.5190    30.5070 c3         1 D0F      -0.037100
     24 C7           0.3830    -8.1700    31.4420 ca         1 D0F      -0.026300
     25 C12          0.3800    -9.5550    31.6040 ca         1 D0F      -0.112500
     26 C11         -0.5170   -10.1710    32.4650 ca         1 D0F      -0.136500
     27 C10         -1.4260    -9.4090    33.1900 ca         1 D0F      -0.150000
     28 C9          -1.4270    -8.0280    33.0440 ca         1 D0F      -0.136500
     29 C8          -0.5300    -7.4180    32.1760 ca         1 D0F      -0.112500
     30 H1           2.5850    -6.0830    23.2110 hc         1 D0F       0.049700
     31 H2           3.1580    -4.7180    24.1550 hc         1 D0F       0.049700
     32 H3           1.1270    -4.7930    25.5780 hc         1 D0F       0.074700
     33 H4           0.5920    -6.2600    24.7940 hc         1 D0F       0.074700
     34 H5          -0.6470    -4.2930    24.0810 hc         1 D0F       0.059700
     35 H6          -0.4350    -6.1970    22.5290 hc         1 D0F       0.037450
     36 H7           0.9910    -5.4760    21.8040 hc         1 D0F       0.037450
     37 H8          -1.8120    -4.2760    21.8170 hc         1 D0F       0.033950
     38 H9          -0.9870    -4.9610    20.4310 hc         1 D0F       0.033950
     39 H10         -0.8590    -2.4630    20.4400 hc         1 D0F       0.029200
     40 H11          0.7320    -3.1920    20.5250 hc         1 D0F       0.029200
     41 H12          0.5830    -1.3490    22.1540 hc         1 D0F       0.033950
     42 H13         -0.8490    -2.0560    22.8760 hc         1 D0F       0.033950
     43 H14          1.9440    -3.2790    22.8470 hc         1 D0F       0.037450
     44 H15          1.1420    -2.5930    24.2480 hc         1 D0F       0.037450
     45 H16          4.8080    -4.3280    25.9290 h1         1 D0F       0.041200
     46 H17          3.1300    -4.1340    26.4470 h1         1 D0F       0.041200
     47 H18          5.1200    -3.9410    28.2830 hc         1 D0F       0.057700
     48 H19          3.6210    -4.7670    28.6950 hc         1 D0F       0.057700
     49 H20          5.3050    -6.4980    29.1390 hc         1 D0F       0.051200
     50 H21          6.2140    -6.0390    27.7070 hc         1 D0F       0.051200
     51 H22          5.0100    -7.7920    26.7290 h1         1 D0F       0.083700
     52 H23          1.9460    -6.3870    27.7610 hn         1 D0F       0.340500
     53 H24          1.0210    -8.8780    28.8620 h1         1 D0F       0.066700
     54 H26          2.3660    -7.8780    30.7360 hc         1 D0F       0.036200
     55 H27          1.3670    -6.4370    30.6630 hc         1 D0F       0.036200
     56 H28          1.0900   -10.1580    31.0490 ha         1 D0F       0.130000
     57 H29         -0.5040   -11.2480    32.5750 ha         1 D0F       0.111000
     58 H30         -2.1250    -9.8870    33.8630 ha         1 D0F       0.108000
     59 H31         -2.1290    -7.4240    33.6050 ha         1 D0F       0.111000
     60 H32         -0.5400    -6.3390    32.0670 ha         1 D0F       0.130000
@<TRIPOS>BOND
     1     1     2 2   
     2     2     3 1   
     3     2    11 1   
     4     3     4 1   
     5     3    30 1   
     6     3    31 1   
     7     4     5 1   
     8     4    32 1   
     9     4    33 1   
    10     5     6 1   
    11     5    10 1   
    12     5    34 1   
    13     6     7 1   
    14     6    35 1   
    15     6    36 1   
    16     7     8 1   
    17     7    37 1   
    18     7    38 1   
    19     8     9 1   
    20     8    39 1   
    21     8    40 1   
    22     9    10 1   
    23     9    41 1   
    24     9    42 1   
    25    10    43 1   
    26    10    44 1   
    27    11    12 1   
    28    11    15 1   
    29    12    13 1   
    30    12    45 1   
    31    12    46 1   
    32    13    14 1   
    33    13    47 1   
    34    13    48 1   
    35    14    15 1   
    36    14    49 1   
    37    14    50 1   
    38    15    16 1   
    39    15    51 1   
    40    16    17 2   
    41    16    18 1   
    42    18    19 1   
    43    18    52 1   
    44    19    20 1   
    45    19    23 1   
    46    19    53 1   
    47    20    21 1   
    48    20    22 1   
    49    23    24 1   
    50    23    54 1   
    51    23    55 1   
    52    24    25 ar  
    53    24    29 ar  
    54    25    26 ar  
    55    25    56 1   
    56    26    27 ar  
    57    26    57 1   
    58    27    28 ar  
    59    27    58 1   
    60    28    29 ar  
    61    28    59 1   
    62    29    60 1   
@<TRIPOS>SUBSTRUCTURE
     1 D0F         1 TEMP              0 ****  ****    0 ROOT
