@<TRIPOS>MOLECULE
D0G
   52    51     1     0     0
SMALL
bcc


@<TRIPOS>ATOM
      1 C15          6.2830    -0.2380    -0.0120 c3         1 D0G      -0.053400
      2 C01          4.9940     0.5600     0.1450 c3         1 D0G      -0.079400
      3 C02          3.7380    -0.2820    -0.0380 c3         1 D0G      -0.075400
      4 C03          2.4480     0.5120     0.1210 c3         1 D0G      -0.074400
      5 C04          1.1940    -0.3340    -0.0590 c3         1 D0G      -0.075400
      6 C05         -0.0980     0.4590     0.0990 c3         1 D0G      -0.074400
      7 C06         -1.3500    -0.3900    -0.0820 c3         1 D0G      -0.074400
      8 C07         -2.6430     0.3990     0.0800 c3         1 D0G      -0.074400
      9 C08         -3.8930    -0.4530    -0.1010 c3         1 D0G      -0.075400
     10 C09         -5.1890     0.3310     0.0620 c3         1 D0G      -0.073400
     11 C10         -6.4280    -0.5360    -0.1280 c3         1 D0G      -0.073400
     12 C11         -7.7650     0.1630     0.1320 c3         1 D0G      -0.058700
     13 C12         -8.9050    -0.8590     0.0670 c3         1 D0G      -0.073400
     14 C13         -7.9940     1.3230    -0.8330 c3         1 D0G      -0.085100
     15 C14        -10.2610    -0.3300     0.5140 c3         1 D0G      -0.087100
     16 C16          7.5290     0.6120     0.1730 c3         1 D0G      -0.204400
     17 C17          8.8770    -0.1200     0.0480 c          1 D0G       0.926600
     18 O01          8.8580    -1.3440    -0.1930 o          1 D0G      -0.849300
     19 O02          9.8980     0.5840     0.2010 o          1 D0G      -0.849300
     20 H1           6.2860    -1.0610     0.7090 hc         1 D0G       0.038200
     21 H2           6.2970    -0.7070    -1.0000 hc         1 D0G       0.038200
     22 H3           4.9730     1.0310     1.1340 hc         1 D0G       0.023700
     23 H4           4.9850     1.3840    -0.5790 hc         1 D0G       0.023700
     24 H5           3.7560    -0.7510    -1.0280 hc         1 D0G       0.033700
     25 H6           3.7470    -1.1070     0.6850 hc         1 D0G       0.033700
     26 H7           2.4300     0.9810     1.1110 hc         1 D0G       0.031700
     27 H8           2.4370     1.3350    -0.6030 hc         1 D0G       0.031700
     28 H9           1.2110    -0.8040    -1.0490 hc         1 D0G       0.034700
     29 H10          1.2040    -1.1560     0.6650 hc         1 D0G       0.034700
     30 H11         -0.1160     0.9290     1.0880 hc         1 D0G       0.034700
     31 H12         -0.1090     1.2810    -0.6260 hc         1 D0G       0.034700
     32 H13         -1.3320    -0.8570    -1.0730 hc         1 D0G       0.035700
     33 H14         -1.3370    -1.2140     0.6400 hc         1 D0G       0.035700
     34 H15         -2.6620     0.8660     1.0710 hc         1 D0G       0.035700
     35 H16         -2.6580     1.2230    -0.6430 hc         1 D0G       0.035700
     36 H17         -3.8750    -0.9180    -1.0940 hc         1 D0G       0.036200
     37 H18         -3.8750    -1.2790     0.6190 hc         1 D0G       0.036200
     38 H19         -5.2150     0.7870     1.0590 hc         1 D0G       0.036700
     39 H20         -5.1920     1.1620    -0.6500 hc         1 D0G       0.036700
     40 H21         -6.4320    -0.9480    -1.1450 hc         1 D0G       0.036200
     41 H22         -6.3550    -1.3980     0.5450 hc         1 D0G       0.036200
     42 H23         -7.7380     0.5680     1.1530 hc         1 D0G       0.043700
     43 H24         -8.9790    -1.2440    -0.9560 hc         1 D0G       0.036200
     44 H25         -8.6380    -1.7160     0.6920 hc         1 D0G       0.036200
     45 H26         -7.9990     0.9660    -1.8670 hc         1 D0G       0.031033
     46 H27         -8.9480     1.8180    -0.6510 hc         1 D0G       0.031033
     47 H28         -7.2180     2.0830    -0.7490 hc         1 D0G       0.031033
     48 H29        -10.2180     0.0460     1.5380 hc         1 D0G       0.029700
     49 H30        -10.6140     0.4850    -0.1190 hc         1 D0G       0.029700
     50 H31        -11.0170    -1.1150     0.4820 hc         1 D0G       0.029700
     51 H32          7.5230     1.4370    -0.5500 hc         1 D0G       0.014700
     52 H33          7.4990     1.1010     1.1540 hc         1 D0G       0.014700
@<TRIPOS>BOND
     1     1     2 1   
     2     1    16 1   
     3     1    20 1   
     4     1    21 1   
     5     2     3 1   
     6     2    22 1   
     7     2    23 1   
     8     3     4 1   
     9     3    24 1   
    10     3    25 1   
    11     4     5 1   
    12     4    26 1   
    13     4    27 1   
    14     5     6 1   
    15     5    28 1   
    16     5    29 1   
    17     6     7 1   
    18     6    30 1   
    19     6    31 1   
    20     7     8 1   
    21     7    32 1   
    22     7    33 1   
    23     8     9 1   
    24     8    34 1   
    25     8    35 1   
    26     9    10 1   
    27     9    36 1   
    28     9    37 1   
    29    10    11 1   
    30    10    38 1   
    31    10    39 1   
    32    11    12 1   
    33    11    40 1   
    34    11    41 1   
    35    12    13 1   
    36    12    14 1   
    37    12    42 1   
    38    13    15 1   
    39    13    43 1   
    40    13    44 1   
    41    14    45 1   
    42    14    46 1   
    43    14    47 1   
    44    15    48 1   
    45    15    49 1   
    46    15    50 1   
    47    16    17 1   
    48    16    51 1   
    49    16    52 1   
    50    17    18 1   
    51    17    19 1   
@<TRIPOS>SUBSTRUCTURE
     1 D0G         1 TEMP              0 ****  ****    0 ROOT
