@<TRIPOS>MOLECULE
D0G
   52    51     1     0     0
SMALL
No Charge or Current Charge


@<TRIPOS>ATOM
      1 C15          6.3910    -0.1860     0.0160 c3         1 D0G      -0.053400
      2 C01          5.0770     0.6190     0.1220 c3         1 D0G      -0.079400
      3 C02          3.8150    -0.2620    -0.0070 c3         1 D0G      -0.075400
      4 C03          2.5010     0.5430     0.0980 c3         1 D0G      -0.074400
      5 C04          1.2400    -0.3380    -0.0320 c3         1 D0G      -0.075400
      6 C05         -0.0740     0.4670     0.0740 c3         1 D0G      -0.074400
      7 C06         -1.3360    -0.4140    -0.0560 c3         1 D0G      -0.074400
      8 C07         -2.6490     0.3910     0.0490 c3         1 D0G      -0.074400
      9 C08         -3.9110    -0.4900    -0.0810 c3         1 D0G      -0.075400
     10 C09         -5.2240     0.3150     0.0240 c3         1 D0G      -0.073400
     11 C10         -6.4870    -0.5710    -0.1110 c3         1 D0G      -0.073400
     12 C11         -7.8390     0.1640     0.1170 c3         1 D0G      -0.058700
     13 C12         -9.0080    -0.8600     0.1590 c3         1 D0G      -0.073400
     14 C13         -8.0820     1.2860    -0.9270 c3         1 D0G      -0.085100
     15 C14        -10.3760    -0.2750     0.5720 c3         1 D0G      -0.087100
     16 C16          7.6580     0.6950     0.1450 c3         1 D0G      -0.204400
     17 C17          8.9240    -0.1730     0.0310 c          1 D0G       0.716000
     18 O01          9.3900    -0.3700    -1.0810 o          1 D0G      -0.744000
     19 O02          9.3800    -0.6670     1.0510 o          1 D0G      -0.744000
     20 H1           6.4060    -0.9550     0.7990 hc         1 D0G       0.038200
     21 H2           6.4150    -0.7120    -0.9470 hc         1 D0G       0.038200
     22 H3           5.0510     1.1440     1.0850 hc         1 D0G       0.023700
     23 H4           5.0600     1.3870    -0.6620 hc         1 D0G       0.023700
     24 H5           3.8390    -0.7870    -0.9710 hc         1 D0G       0.033700
     25 H6           3.8300    -1.0300     0.7760 hc         1 D0G       0.033700
     26 H7           2.4770     1.0670     1.0610 hc         1 D0G       0.031700
     27 H8           2.4860     1.3110    -0.6860 hc         1 D0G       0.031700
     28 H9           1.2640    -0.8630    -0.9950 hc         1 D0G       0.034700
     29 H10          1.2550    -1.1060     0.7520 hc         1 D0G       0.034700
     30 H11         -0.0990     0.9920     1.0370 hc         1 D0G       0.034700
     31 H12         -0.0890     1.2350    -0.7100 hc         1 D0G       0.034700
     32 H13         -1.3110    -0.9390    -1.0190 hc         1 D0G       0.035700
     33 H14         -1.3200    -1.1820     0.7280 hc         1 D0G       0.035700
     34 H15         -2.6740     0.9160     1.0120 hc         1 D0G       0.035700
     35 H16         -2.6640     1.1590    -0.7350 hc         1 D0G       0.035700
     36 H17         -3.8860    -1.0140    -1.0450 hc         1 D0G       0.036200
     37 H18         -3.8950    -1.2580     0.7020 hc         1 D0G       0.036200
     38 H19         -5.2510     0.8360     0.9900 hc         1 D0G       0.036700
     39 H20         -5.2240     1.0830    -0.7580 hc         1 D0G       0.036700
     40 H21         -6.4920    -1.0380    -1.1040 hc         1 D0G       0.036200
     41 H22         -6.4060    -1.3890     0.6160 hc         1 D0G       0.036200
     42 H23         -7.7880     0.6400     1.1050 hc         1 D0G       0.043700
     43 H24         -9.1080    -1.3420    -0.8220 hc         1 D0G       0.036200
     44 H25         -8.7570    -1.6560     0.8710 hc         1 D0G       0.036200
     45 H26         -8.1300     0.8710    -1.9410 hc         1 D0G       0.031033
     46 H27         -9.0190     1.8180    -0.7290 hc         1 D0G       0.031033
     47 H28         -7.2830     2.0350    -0.9000 hc         1 D0G       0.031033
     48 H29        -10.2980     0.2640     1.5240 hc         1 D0G       0.029700
     49 H30        -10.7630     0.4120    -0.1890 hc         1 D0G       0.029700
     50 H31        -11.1090    -1.0810     0.6970 hc         1 D0G       0.029700
     51 H32          7.6090     1.4140    -0.6820 hc         1 D0G       0.014700
     52 H33          7.6000     1.1600     1.1370 hc         1 D0G       0.014700
@<TRIPOS>BOND
     1     1     2 1   
     2     1    16 1   
     3     1    20 1   
     4     1    21 1   
     5     2     3 1   
     6     2    22 1   
     7     2    23 1   
     8     3     4 1   
     9     3    24 1   
    10     3    25 1   
    11     4     5 1   
    12     4    26 1   
    13     4    27 1   
    14     5     6 1   
    15     5    28 1   
    16     5    29 1   
    17     6     7 1   
    18     6    30 1   
    19     6    31 1   
    20     7     8 1   
    21     7    32 1   
    22     7    33 1   
    23     8     9 1   
    24     8    34 1   
    25     8    35 1   
    26     9    10 1   
    27     9    36 1   
    28     9    37 1   
    29    10    11 1   
    30    10    38 1   
    31    10    39 1   
    32    11    12 1   
    33    11    40 1   
    34    11    41 1   
    35    12    13 1   
    36    12    14 1   
    37    12    42 1   
    38    13    15 1   
    39    13    43 1   
    40    13    44 1   
    41    14    45 1   
    42    14    46 1   
    43    14    47 1   
    44    15    48 1   
    45    15    49 1   
    46    15    50 1   
    47    16    17 1   
    48    16    51 1   
    49    16    52 1   
    50    17    18 1   
    51    17    19 1   
@<TRIPOS>SUBSTRUCTURE
     1 D0G         1 TEMP              0 ****  ****    0 ROOT
