@<TRIPOS>MOLECULE
D0H
   55    57     1     0     0
SMALL
No Charge or Current Charge


@<TRIPOS>ATOM
      1 CBD          3.3020     5.6210     0.6330 c3         1 D0H      -0.048800
      2 CAZ          2.6310     4.3870     0.0500 ca         1 D0H      -0.047300
      3 CAY          1.4540     3.8760     0.6330 ca         1 D0H      -0.125000
      4 CBA          3.1850     3.7400    -1.0700 ca         1 D0H      -0.123000
      5 CBB          2.5620     2.6020    -1.6090 ca         1 D0H      -0.081000
      6 CBC          1.3870     2.1020    -1.0230 ca         1 D0H      -0.153000
      7 CAX          0.8370     2.7280     0.1100 ca         1 D0H       0.299000
      8 NAK         -0.3300     2.2440     0.7060 nu         1 D0H      -0.981000
      9 CAJ         -0.9770     1.0180     0.6560 ca         1 D0H       0.437000
     10 CAI         -2.3600     1.0390     0.5320 ca         1 D0H      -0.321000
     11 CAH         -3.0390    -0.1660     0.3850 ca         1 D0H       0.554900
     12 NAL         -4.4340    -0.1910     0.3080 ns         1 D0H      -0.346900
     13 CAM         -5.2650    -1.0450    -0.3680 c          1 D0H       0.662100
     14 OAO         -4.9010    -1.9480    -1.1050 o          1 D0H      -0.577100
     15 NAN         -6.5870    -0.7570    -0.1470 ns         1 D0H      -0.529900
     16 CAP         -7.6990    -1.4930    -0.7450 c3         1 D0H       0.117000
     17 CAQ         -9.0550    -0.9350    -0.2870 c3         1 D0H      -0.112100
     18 NAG         -2.4280    -1.3600     0.4170 nb         1 D0H      -0.706000
     19 CAF         -1.0900    -1.3750     0.5570 ca         1 D0H       0.426900
     20 CAE         -0.3180    -0.2160     0.6880 ca         1 D0H      -0.314600
     21 CAC          1.1480    -0.3560     0.9270 c          1 D0H       0.637700
     22 OAD          1.7300     0.2890     1.7910 o          1 D0H      -0.565100
     23 NAB          1.7660    -1.3420     0.1670 ns         1 D0H      -0.146000
     24 CAA          3.1250    -1.7430     0.0660 ca         1 D0H      -0.020000
     25 CAV          3.4020    -2.9730    -0.5590 ca         1 D0H      -0.163000
     26 CAU          4.7260    -3.4280    -0.7050 ca         1 D0H      -0.052300
     27 CAW          5.0080    -4.7620    -1.3790 c3         1 D0H      -0.047800
     28 CAT          5.7850    -2.6350    -0.2300 ca         1 D0H      -0.134000
     29 CAS          5.5220    -1.4000     0.3840 ca         1 D0H      -0.087000
     30 CAR          4.1980    -0.9520     0.5300 ca         1 D0H      -0.120000
     31 H1           4.0180     5.3430     1.4150 hc         1 D0H       0.044367
     32 H2           3.8460     6.1820    -0.1360 hc         1 D0H       0.044367
     33 H3           2.5670     6.3030     1.0780 hc         1 D0H       0.044367
     34 H4           1.0270     4.3670     1.5030 ha         1 D0H       0.118000
     35 H5           4.0950     4.1210    -1.5270 ha         1 D0H       0.114000
     36 H6           2.9880     2.1110    -2.4810 ha         1 D0H       0.113000
     37 H7           0.9030     1.2340    -1.4590 ha         1 D0H       0.117000
     38 H8          -0.8660     2.9580     1.1990 hn         1 D0H       0.494000
     39 H9          -2.9070     1.9760     0.5140 ha         1 D0H       0.119000
     40 H10         -4.8890     0.5490     0.8230 hn         1 D0H       0.148000
     41 H11         -6.7940     0.0130     0.4770 hn         1 D0H       0.306500
     42 H12         -7.6250    -1.4240    -1.8390 h1         1 D0H       0.052700
     43 H13         -7.6220    -2.5510    -0.4600 h1         1 D0H       0.052700
     44 H14         -9.8740    -1.5010    -0.7470 hc         1 D0H       0.042367
     45 H15         -9.1560    -1.0100     0.8030 hc         1 D0H       0.042367
     46 H16         -9.1590     0.1170    -0.5770 hc         1 D0H       0.042367
     47 H17         -0.6340    -2.3640     0.6010 h4         1 D0H       0.026100
     48 H18          1.1470    -1.8390    -0.4590 hn         1 D0H       0.152000
     49 H19          2.5830    -3.5840    -0.9320 ha         1 D0H       0.106000
     50 H20          5.0990    -4.6380    -2.4650 hc         1 D0H       0.041367
     51 H21          5.9410    -5.2070    -1.0130 hc         1 D0H       0.041367
     52 H22          4.2040    -5.4830    -1.1910 hc         1 D0H       0.041367
     53 H23          6.8140    -2.9720    -0.3400 ha         1 D0H       0.111000
     54 H24          6.3450    -0.7850     0.7420 ha         1 D0H       0.113000
     55 H25          4.0280     0.0170     0.9900 ha         1 D0H       0.139000
@<TRIPOS>BOND
     1     1     2 1   
     2     1    31 1   
     3     1    32 1   
     4     1    33 1   
     5     2     3 ar  
     6     2     4 ar  
     7     3     7 ar  
     8     3    34 1   
     9     4     5 ar  
    10     4    35 1   
    11     5     6 ar  
    12     5    36 1   
    13     6     7 ar  
    14     6    37 1   
    15     7     8 1   
    16     8     9 1   
    17     8    38 1   
    18     9    10 ar  
    19     9    20 ar  
    20    10    11 ar  
    21    10    39 1   
    22    11    12 1   
    23    11    18 ar  
    24    12    13 1   
    25    12    40 1   
    26    13    14 2   
    27    13    15 1   
    28    15    16 1   
    29    15    41 1   
    30    16    17 1   
    31    16    42 1   
    32    16    43 1   
    33    17    44 1   
    34    17    45 1   
    35    17    46 1   
    36    18    19 ar  
    37    19    20 ar  
    38    19    47 1   
    39    20    21 1   
    40    21    22 2   
    41    21    23 1   
    42    23    24 1   
    43    23    48 1   
    44    24    25 ar  
    45    24    30 ar  
    46    25    26 ar  
    47    25    49 1   
    48    26    27 1   
    49    26    28 ar  
    50    27    50 1   
    51    27    51 1   
    52    27    52 1   
    53    28    29 ar  
    54    28    53 1   
    55    29    30 ar  
    56    29    54 1   
    57    30    55 1   
@<TRIPOS>SUBSTRUCTURE
     1 D0H         1 TEMP              0 ****  ****    0 ROOT
