@<TRIPOS>MOLECULE
D0H
   55    57     1     0     0
SMALL
bcc


@<TRIPOS>ATOM
      1 CBD          3.8180     4.7110     0.3370 c3         1 D0H      -0.048800
      2 CAZ          2.9620     3.6210    -0.2390 ca         1 D0H      -0.047300
      3 CAY          1.6740     3.4040     0.2340 ca         1 D0H      -0.143000
      4 CBA          3.4590     2.7800    -1.2340 ca         1 D0H      -0.141000
      5 CBB          2.6690     1.7680    -1.7560 ca         1 D0H      -0.099000
      6 CBC          1.3720     1.5760    -1.3020 ca         1 D0H      -0.171000
      7 CAX          0.8800     2.3830    -0.2820 ca         1 D0H       0.160600
      8 NAK         -0.4220     2.2260     0.2160 nu         1 D0H      -0.649000
      9 CAJ         -1.1140     1.0560     0.3200 ca         1 D0H       0.298600
     10 CAI         -2.5010     1.0690     0.2030 ca         1 D0H      -0.404300
     11 CAH         -3.2170    -0.1210     0.3080 ca         1 D0H       0.620200
     12 NAL         -4.5960    -0.0460     0.2500 ns         1 D0H      -0.580400
     13 CAM         -5.4870    -1.0600    -0.0660 c          1 D0H       0.796100
     14 OAO         -5.1550    -2.1520    -0.4910 o          1 D0H      -0.577100
     15 NAN         -6.7760    -0.6960     0.1140 ns         1 D0H      -0.596900
     16 CAP         -7.8690    -1.6140    -0.1330 c3         1 D0H       0.117000
     17 CAQ         -9.1960    -0.8850    -0.0360 c3         1 D0H      -0.112100
     18 NAG         -2.6380    -1.3020     0.4850 nb         1 D0H      -0.706000
     19 CAF         -1.3170    -1.3100     0.5890 ca         1 D0H       0.492200
     20 CAE         -0.4970    -0.1960     0.5430 ca         1 D0H      -0.379900
     21 CAC          0.9340    -0.3320     0.9400 c          1 D0H       0.704700
     22 OAD          1.4100     0.3210     1.8490 o          1 D0H      -0.565100
     23 NAB          1.6120    -1.2700     0.2310 ns         1 D0H      -0.472100
     24 CAA          2.9740    -1.5860     0.3320 ca         1 D0H       0.072600
     25 CAV          3.6190    -2.0060    -0.8310 ca         1 D0H      -0.181000
     26 CAU          4.9590    -2.3710    -0.8260 ca         1 D0H      -0.052300
     27 CAW          5.6380    -2.7920    -2.0960 c3         1 D0H      -0.047800
     28 CAT          5.6610    -2.3060     0.3760 ca         1 D0H      -0.152000
     29 CAS          5.0220    -1.8910     1.5350 ca         1 D0H      -0.105000
     30 CAR          3.6820    -1.5320     1.5300 ca         1 D0H      -0.138000
     31 H1           4.5900     4.2980     0.9880 hc         1 D0H       0.044367
     32 H2           4.3290     5.2720    -0.4470 hc         1 D0H       0.044367
     33 H3           3.2330     5.4160     0.9260 hc         1 D0H       0.044367
     34 H4           1.2770     4.0300     1.0260 ha         1 D0H       0.136000
     35 H5           4.4660     2.9250    -1.6070 ha         1 D0H       0.132000
     36 H6           3.0570     1.1320    -2.5410 ha         1 D0H       0.131000
     37 H7           0.7480     0.8160    -1.7550 ha         1 D0H       0.135000
     38 H8          -0.9680     3.0700     0.2960 hn         1 D0H       0.438800
     39 H9          -3.0160     2.0000     0.0000 ha         1 D0H       0.137000
     40 H10         -4.9770     0.8820     0.3460 hn         1 D0H       0.314500
     41 H11         -6.9850     0.1390     0.6370 hn         1 D0H       0.306500
     42 H12         -7.7580    -2.0490    -1.1270 h1         1 D0H       0.052700
     43 H13         -7.8500    -2.4430     0.5820 h1         1 D0H       0.052700
     44 H14        -10.0160    -1.5800    -0.2130 hc         1 D0H       0.042367
     45 H15         -9.3400    -0.4490     0.9540 hc         1 D0H       0.042367
     46 H16         -9.2660    -0.0850    -0.7740 hc         1 D0H       0.042367
     47 H17         -0.8710    -2.2840     0.7670 h4         1 D0H       0.026100
     48 H18          1.1450    -1.6270    -0.5890 hn         1 D0H       0.318500
     49 H19          3.0580    -2.0460    -1.7590 ha         1 D0H       0.124000
     50 H20          6.0550    -1.9290    -2.6200 hc         1 D0H       0.041367
     51 H21          6.4620    -3.4770    -1.8990 hc         1 D0H       0.041367
     52 H22          4.9460    -3.2820    -2.7800 hc         1 D0H       0.041367
     53 H23          6.7070    -2.5870     0.4070 ha         1 D0H       0.129000
     54 H24          5.5720    -1.8560     2.4660 ha         1 D0H       0.131000
     55 H25          3.2040    -1.2340     2.4500 ha         1 D0H       0.157000
@<TRIPOS>BOND
     1     1     2 1   
     2     1    31 1   
     3     1    32 1   
     4     1    33 1   
     5     2     3 ar  
     6     2     4 ar  
     7     3     7 ar  
     8     3    34 1   
     9     4     5 ar  
    10     4    35 1   
    11     5     6 ar  
    12     5    36 1   
    13     6     7 ar  
    14     6    37 1   
    15     7     8 1   
    16     8     9 1   
    17     8    38 1   
    18     9    10 ar  
    19     9    20 ar  
    20    10    11 ar  
    21    10    39 1   
    22    11    12 1   
    23    11    18 ar  
    24    12    13 1   
    25    12    40 1   
    26    13    14 2   
    27    13    15 1   
    28    15    16 1   
    29    15    41 1   
    30    16    17 1   
    31    16    42 1   
    32    16    43 1   
    33    17    44 1   
    34    17    45 1   
    35    17    46 1   
    36    18    19 ar  
    37    19    20 ar  
    38    19    47 1   
    39    20    21 1   
    40    21    22 2   
    41    21    23 1   
    42    23    24 1   
    43    23    48 1   
    44    24    25 ar  
    45    24    30 ar  
    46    25    26 ar  
    47    25    49 1   
    48    26    27 1   
    49    26    28 ar  
    50    27    50 1   
    51    27    51 1   
    52    27    52 1   
    53    28    29 ar  
    54    28    53 1   
    55    29    30 ar  
    56    29    54 1   
    57    30    55 1   
@<TRIPOS>SUBSTRUCTURE
     1 D0H         1 TEMP              0 ****  ****    0 ROOT
