@<TRIPOS>MOLECULE
D0I
   41    43     1     0     0
SMALL
No Charge or Current Charge


@<TRIPOS>ATOM
      1 N           17.1780     8.7540    12.4600 n3         1 D0I      -0.742600
      2 C           20.0700     9.5010    12.1490 c3         1 D0I       0.173600
      3 O           20.7420     9.7320    13.3990 oh         1 D0I      -0.659000
      4 C1          18.7910    10.3830    12.0160 c5         1 D0I      -0.004700
      5 C10         16.1060     8.0460    13.2020 c3         1 D0I       0.230100
      6 C11         14.8190     8.8540    13.3780 ca         1 D0I      -0.125300
      7 C12         14.6650     9.7160    14.4820 ca         1 D0I      -0.100500
      8 C13         13.4800    10.4550    14.6470 ca         1 D0I      -0.111500
      9 C14         12.4380    10.3320    13.7130 ca         1 D0I      -0.106000
     10 C15         12.5820     9.4690    12.6140 ca         1 D0I      -0.111500
     11 C16         13.7660     8.7300    12.4480 ca         1 D0I      -0.100500
     12 C17         17.6720    10.0210    13.0410 c5         1 D0I       0.175800
     13 C2          19.1080    11.9010    12.0830 ca         1 D0I      -0.054300
     14 C3          19.7290    12.5340    10.9800 ca         1 D0I      -0.100500
     15 C4          20.0470    13.9030    11.0090 ca         1 D0I      -0.111500
     16 C5          19.7630    14.6660    12.1510 ca         1 D0I      -0.112000
     17 C6          19.1720    14.0540    13.2650 ca         1 D0I      -0.111500
     18 C7          18.8540    12.6850    13.2370 ca         1 D0I      -0.100500
     19 C8          18.0020    10.1300    10.6770 c5         1 D0I      -0.078400
     20 C9          16.9010     9.0850    11.0430 c5         1 D0I       0.166800
     21 H2          19.7970     8.4410    12.0580 h1         1 D0I       0.025700
     22 H3          20.7450     9.7360    11.3150 h1         1 D0I       0.025700
     23 H4          21.5240     9.1380    13.4140 ho         1 D0I       0.441000
     24 H5          15.8630     7.1050    12.6890 h1         1 D0I       0.056700
     25 H6          16.4760     7.7650    14.1980 h1         1 D0I       0.056700
     26 H7          15.4650     9.8160    15.2120 ha         1 D0I       0.110000
     27 H8          13.3690    11.1210    15.5000 ha         1 D0I       0.112000
     28 H9          11.5210    10.9040    13.8410 ha         1 D0I       0.112000
     29 H10         11.7750     9.3710    11.8900 ha         1 D0I       0.112000
     30 H11         13.8680     8.0630    11.5950 ha         1 D0I       0.110000
     31 H12         18.0620     9.8900    14.0600 h1         1 D0I       0.048700
     32 H13         16.8800    10.7830    13.0680 h1         1 D0I       0.048700
     33 H14         19.9720    11.9620    10.0880 ha         1 D0I       0.109500
     34 H15         20.5170    14.3700    10.1470 ha         1 D0I       0.109500
     35 H16         20.0100    15.7250    12.1750 ha         1 D0I       0.110000
     36 H17         18.9640    14.6400    14.1580 ha         1 D0I       0.109500
     37 H18         18.4180    12.2460    14.1290 ha         1 D0I       0.109500
     38 H19         18.6560     9.7660     9.8760 hc         1 D0I       0.050200
     39 H20         17.5210    11.0390    10.2990 hc         1 D0I       0.050200
     40 H21         15.9070     9.5350    10.9210 h1         1 D0I       0.037700
     41 H22         16.9470     8.1950    10.4020 h1         1 D0I       0.037700
@<TRIPOS>BOND
     1     1     5 1   
     2     1    12 1   
     3     1    20 1   
     4     2     3 1   
     5     2     4 1   
     6     2    21 1   
     7     2    22 1   
     8     3    23 1   
     9     4    12 1   
    10     4    13 1   
    11     4    19 1   
    12     5     6 1   
    13     5    24 1   
    14     5    25 1   
    15     6     7 ar  
    16     6    11 ar  
    17     7     8 ar  
    18     7    26 1   
    19     8     9 ar  
    20     8    27 1   
    21     9    10 ar  
    22     9    28 1   
    23    10    11 ar  
    24    10    29 1   
    25    11    30 1   
    26    12    31 1   
    27    12    32 1   
    28    13    14 ar  
    29    13    18 ar  
    30    14    15 ar  
    31    14    33 1   
    32    15    16 ar  
    33    15    34 1   
    34    16    17 ar  
    35    16    35 1   
    36    17    18 ar  
    37    17    36 1   
    38    18    37 1   
    39    19    20 1   
    40    19    38 1   
    41    19    39 1   
    42    20    40 1   
    43    20    41 1   
@<TRIPOS>SUBSTRUCTURE
     1 D0I         1 TEMP              0 ****  ****    0 ROOT
