@<TRIPOS>MOLECULE
D0I
   41    43     1     0     0
SMALL
bcc


@<TRIPOS>ATOM
      1 N           17.1510     8.7770    12.4340 n3         1 D0I      -0.742600
      2 C           20.0000     9.6140    12.1560 c3         1 D0I       0.150400
      3 O           20.6080     9.9180    13.3880 oh         1 D0I      -0.596800
      4 C1          18.7180    10.4360    11.9930 c5         1 D0I      -0.004700
      5 C10         16.1150     8.0800    13.1650 c3         1 D0I       0.230100
      6 C11         14.8300     8.8500    13.3710 ca         1 D0I      -0.125300
      7 C12         14.6820     9.6990    14.4670 ca         1 D0I      -0.118500
      8 C13         13.5210    10.4390    14.6440 ca         1 D0I      -0.129500
      9 C14         12.4850    10.3380    13.7250 ca         1 D0I      -0.124000
     10 C15         12.6170     9.4930    12.6320 ca         1 D0I      -0.129500
     11 C16         13.7820     8.7560    12.4590 ca         1 D0I      -0.118500
     12 C17         17.6690     9.9900    13.0200 c5         1 D0I       0.175800
     13 C2          19.0650    11.9070    12.0660 ca         1 D0I      -0.054300
     14 C3          19.6680    12.5380    10.9780 ca         1 D0I      -0.118500
     15 C4          20.0310    13.8760    11.0330 ca         1 D0I      -0.129500
     16 C5          19.7980    14.6160    12.1860 ca         1 D0I      -0.130000
     17 C6          19.2070    13.9990    13.2790 ca         1 D0I      -0.129500
     18 C7          18.8520    12.6570    13.2200 ca         1 D0I      -0.118500
     19 C8          18.0470    10.0220    10.6550 c5         1 D0I      -0.078400
     20 C9          16.8880     9.0950    11.0460 c5         1 D0I       0.166800
     21 H2          19.7420     8.5500    12.0840 h1         1 D0I       0.025700
     22 H3          20.6670     9.8410    11.3110 h1         1 D0I       0.025700
     23 H4          21.3560     9.3250    13.5070 ho         1 D0I       0.402000
     24 H5          15.9010     7.1480    12.6350 h1         1 D0I       0.056700
     25 H6          16.5260     7.8010    14.1400 h1         1 D0I       0.056700
     26 H7          15.4810     9.7750    15.1960 ha         1 D0I       0.128000
     27 H8          13.4230    11.0910    15.5030 ha         1 D0I       0.130000
     28 H9          11.5760    10.9110    13.8640 ha         1 D0I       0.130000
     29 H10         11.8110     9.4020    11.9150 ha         1 D0I       0.130000
     30 H11         13.8710     8.0890    11.6080 ha         1 D0I       0.128000
     31 H12         18.0810     9.7980    14.0140 h1         1 D0I       0.048700
     32 H13         16.9000    10.7720    13.1300 h1         1 D0I       0.048700
     33 H14         19.8600    11.9790    10.0690 ha         1 D0I       0.127500
     34 H15         20.4940    14.3420    10.1730 ha         1 D0I       0.127500
     35 H16         20.0760    15.6610    12.2300 ha         1 D0I       0.128000
     36 H17         19.0250    14.5610    14.1860 ha         1 D0I       0.127500
     37 H18         18.4010    12.1990    14.0910 ha         1 D0I       0.127500
     38 H19         18.7610     9.5230     9.9950 hc         1 D0I       0.050200
     39 H20         17.6770    10.8910    10.1110 hc         1 D0I       0.050200
     40 H21         15.9320     9.6200    10.9080 h1         1 D0I       0.037700
     41 H22         16.8460     8.1850    10.4430 h1         1 D0I       0.037700
@<TRIPOS>BOND
     1     1     5 1   
     2     1    12 1   
     3     1    20 1   
     4     2     3 1   
     5     2     4 1   
     6     2    21 1   
     7     2    22 1   
     8     3    23 1   
     9     4    12 1   
    10     4    13 1   
    11     4    19 1   
    12     5     6 1   
    13     5    24 1   
    14     5    25 1   
    15     6     7 ar  
    16     6    11 ar  
    17     7     8 ar  
    18     7    26 1   
    19     8     9 ar  
    20     8    27 1   
    21     9    10 ar  
    22     9    28 1   
    23    10    11 ar  
    24    10    29 1   
    25    11    30 1   
    26    12    31 1   
    27    12    32 1   
    28    13    14 ar  
    29    13    18 ar  
    30    14    15 ar  
    31    14    33 1   
    32    15    16 ar  
    33    15    34 1   
    34    16    17 ar  
    35    16    35 1   
    36    17    18 ar  
    37    17    36 1   
    38    18    37 1   
    39    19    20 1   
    40    19    38 1   
    41    19    39 1   
    42    20    40 1   
    43    20    41 1   
@<TRIPOS>SUBSTRUCTURE
     1 D0I         1 TEMP              0 ****  ****    0 ROOT
