@<TRIPOS>MOLECULE
D0K
   52    54     1     0     0
SMALL
No Charge or Current Charge


@<TRIPOS>ATOM
      1 CBD          5.0090     3.5970     1.9780 c3         1 D0K       0.147900
      2 OBC          4.5590     3.5680     0.6120 os         1 D0K      -0.332100
      3 CAZ          3.4250     2.8820     0.2260 ca         1 D0K       0.154100
      4 CBA          2.6180     2.1700     1.1380 ca         1 D0K      -0.172500
      5 CBB          1.4740     1.4870     0.6810 ca         1 D0K      -0.068000
      6 CAY          3.0740     2.9080    -1.1320 ca         1 D0K      -0.172500
      7 CAX          1.9310     2.2250    -1.5860 ca         1 D0K      -0.068000
      8 CAW          1.1300     1.5030    -0.6850 ca         1 D0K       0.188000
      9 NAK          0.0100     0.8090    -1.1630 nu         1 D0K      -0.957000
     10 CAJ         -0.9050    -0.0280    -0.5380 ca         1 D0K       0.410000
     11 CAI         -2.2370     0.3590    -0.6060 ca         1 D0K      -0.314000
     12 CAH         -3.1930    -0.3910     0.0680 ca         1 D0K       0.552900
     13 NAL         -4.5480    -0.0600    -0.0190 ns         1 D0K      -0.347900
     14 CAM         -5.5560    -0.2140     0.8960 c          1 D0K       0.662100
     15 OAO         -5.4200    -0.6440     2.0310 o          1 D0K      -0.573100
     16 NAN         -6.7660     0.2000     0.4010 ns         1 D0K      -0.529900
     17 CAP         -8.0180     0.1640     1.1560 c3         1 D0K       0.115000
     18 CAQ         -9.1950     0.6870     0.3180 c3         1 D0K      -0.111100
     19 NAG         -2.9020    -1.5130     0.7400 nb         1 D0K      -0.704000
     20 CAF         -1.6120    -1.8970     0.7880 ca         1 D0K       0.428900
     21 CAE         -0.5710    -1.2030     0.1590 ca         1 D0K      -0.305600
     22 CAC          0.7990    -1.8100     0.2470 c          1 D0K       0.641700
     23 OAD          1.0560    -2.6290     1.1210 o          1 D0K      -0.565100
     24 NAB          1.7330    -1.4020    -0.6940 ns         1 D0K      -0.132000
     25 CAA          3.1030    -1.7300    -0.9050 ca         1 D0K      -0.068000
     26 CAR          3.7970    -2.7210    -0.1770 ca         1 D0K      -0.100000
     27 CAS          5.1510    -2.9460    -0.4810 ca         1 D0K      -0.142000
     28 CAT          5.7680    -2.1870    -1.4890 ca         1 D0K       0.294900
     29 NAU          5.1140    -1.2370    -2.1940 nb         1 D0K      -0.642000
     30 CAV          3.8100    -1.0210    -1.9000 ca         1 D0K       0.287900
     31 H1           4.2500     4.0480     2.6300 h1         1 D0K       0.044033
     32 H2           5.2280     2.5840     2.3390 h1         1 D0K       0.044033
     33 H3           5.9260     4.1940     2.0630 h1         1 D0K       0.044033
     34 H4           2.8560     2.1340     2.1970 ha         1 D0K       0.129000
     35 H5           0.8570     0.9490     1.3950 ha         1 D0K       0.127000
     36 H6           3.6920     3.4580    -1.8380 ha         1 D0K       0.129000
     37 H7           1.6760     2.2480    -2.6420 ha         1 D0K       0.127000
     38 H8          -0.3580     1.1940    -2.0350 hn         1 D0K       0.479000
     39 H9          -2.5310     1.2520    -1.1470 ha         1 D0K       0.119000
     40 H10         -4.8110     0.3740    -0.8920 hn         1 D0K       0.148000
     41 H11         -6.7820     0.5450    -0.5500 hn         1 D0K       0.304500
     42 H12         -8.2190    -0.8710     1.4650 h1         1 D0K       0.053700
     43 H13         -7.9080     0.7790     2.0590 h1         1 D0K       0.053700
     44 H14         -9.3320     0.0750    -0.5820 hc         1 D0K       0.042033
     45 H15        -10.1220     0.6510     0.9030 hc         1 D0K       0.042033
     46 H16         -9.0220     1.7250     0.0120 hc         1 D0K       0.042033
     47 H17         -1.4260    -2.8210     1.3350 h4         1 D0K       0.027100
     48 H18          1.3740    -0.6990    -1.3300 hn         1 D0K       0.157000
     49 H19          3.3220    -3.3140     0.6000 ha         1 D0K       0.152000
     50 H20          5.7220    -3.7000     0.0560 ha         1 D0K       0.123000
     51 H21          6.8160    -2.3450    -1.7410 h4         1 D0K       0.019100
     52 H22          3.3130    -0.2480    -2.4860 h4         1 D0K       0.016100
@<TRIPOS>BOND
     1     1     2 1   
     2     1    31 1   
     3     1    32 1   
     4     1    33 1   
     5     2     3 1   
     6     3     4 ar  
     7     3     6 ar  
     8     4     5 ar  
     9     4    34 1   
    10     5     8 ar  
    11     5    35 1   
    12     6     7 ar  
    13     6    36 1   
    14     7     8 ar  
    15     7    37 1   
    16     8     9 1   
    17     9    10 1   
    18     9    38 1   
    19    10    11 ar  
    20    10    21 ar  
    21    11    12 ar  
    22    11    39 1   
    23    12    13 1   
    24    12    19 ar  
    25    13    14 1   
    26    13    40 1   
    27    14    15 2   
    28    14    16 1   
    29    16    17 1   
    30    16    41 1   
    31    17    18 1   
    32    17    42 1   
    33    17    43 1   
    34    18    44 1   
    35    18    45 1   
    36    18    46 1   
    37    19    20 ar  
    38    20    21 ar  
    39    20    47 1   
    40    21    22 1   
    41    22    23 2   
    42    22    24 1   
    43    24    25 1   
    44    24    48 1   
    45    25    26 ar  
    46    25    30 ar  
    47    26    27 ar  
    48    26    49 1   
    49    27    28 ar  
    50    27    50 1   
    51    28    29 ar  
    52    28    51 1   
    53    29    30 ar  
    54    30    52 1   
@<TRIPOS>SUBSTRUCTURE
     1 D0K         1 TEMP              0 ****  ****    0 ROOT
