@<TRIPOS>MOLECULE
D0K
   52    54     1     0     0
SMALL
bcc


@<TRIPOS>ATOM
      1 CBD          5.9160     1.9080    -0.6100 c3         1 D0K       0.124700
      2 OBC          4.7320     1.9930    -1.3770 os         1 D0K      -0.308900
      3 CAZ          3.5540     2.0580    -0.7350 ca         1 D0K       0.154100
      4 CBA          3.4150     2.1500     0.6480 ca         1 D0K      -0.190500
      5 CBB          2.1470     2.1660     1.2160 ca         1 D0K      -0.086000
      6 CAY          2.4100     2.0190    -1.5370 ca         1 D0K      -0.190500
      7 CAX          1.1570     2.0450    -0.9600 ca         1 D0K      -0.086000
      8 CAW          1.0120     2.1000     0.4260 ca         1 D0K       0.049600
      9 NAK         -0.2820     2.0450     1.0170 nu         1 D0K      -0.625000
     10 CAJ         -1.1090     0.9860     0.7470 ca         1 D0K       0.271600
     11 CAI         -2.4800     1.1690     0.6050 ca         1 D0K      -0.397300
     12 CAH         -3.2940     0.0770     0.3030 ca         1 D0K       0.618200
     13 NAL         -4.6430     0.3160     0.1130 ns         1 D0K      -0.581400
     14 CAM         -5.6810    -0.6010     0.1760 c          1 D0K       0.796100
     15 OAO         -5.5570    -1.7430     0.5800 o          1 D0K      -0.573100
     16 NAN         -6.8610    -0.0760    -0.2240 ns         1 D0K      -0.596900
     17 CAP         -8.0800    -0.8570    -0.2510 c3         1 D0K       0.115000
     18 CAQ         -9.2880     0.0560    -0.3450 c3         1 D0K      -0.111100
     19 NAG         -2.8240    -1.1500     0.1260 nb         1 D0K      -0.704000
     20 CAF         -1.5200    -1.3250     0.2950 ca         1 D0K       0.494200
     21 CAE         -0.6160    -0.3290     0.6110 ca         1 D0K      -0.370900
     22 CAC          0.7830    -0.7040     0.9850 c          1 D0K       0.708700
     23 OAD          1.1460    -0.6980     2.1460 o          1 D0K      -0.565100
     24 NAB          1.5610    -1.0800    -0.0600 ns         1 D0K      -0.458100
     25 CAA          2.9230    -1.3750    -0.0540 ca         1 D0K      -0.040700
     26 CAR          3.6690    -1.6930     1.0780 ca         1 D0K      -0.118000
     27 CAS          5.0200    -1.9610     0.9180 ca         1 D0K      -0.225300
     28 CAT          5.5820    -1.9150    -0.3460 ca         1 D0K       0.360200
     29 NAU          4.8720    -1.6220    -1.4310 nb         1 D0K      -0.642000
     30 CAV          3.5870    -1.3580    -1.2840 ca         1 D0K       0.353200
     31 H1           6.0770     2.8030    -0.0040 h1         1 D0K       0.044033
     32 H2           5.9140     1.0320     0.0430 h1         1 D0K       0.044033
     33 H3           6.7370     1.8140    -1.3170 h1         1 D0K       0.044033
     34 H4           4.2750     2.1820     1.3020 ha         1 D0K       0.147000
     35 H5           2.0470     2.2050     2.2920 ha         1 D0K       0.145000
     36 H6           2.5140     1.9610    -2.6140 ha         1 D0K       0.147000
     37 H7           0.2800     2.0030    -1.5950 ha         1 D0K       0.145000
     38 H8          -0.7520     2.9340     1.1080 hn         1 D0K       0.423800
     39 H9          -2.9070     2.1600     0.7040 ha         1 D0K       0.137000
     40 H10         -4.9000     1.2870     0.0280 hn         1 D0K       0.314500
     41 H11         -6.8620     0.7920    -0.7380 hn         1 D0K       0.304500
     42 H12         -8.0770    -1.5590    -1.0910 h1         1 D0K       0.053700
     43 H13         -8.1360    -1.4530     0.6600 h1         1 D0K       0.053700
     44 H14         -9.2620     0.6600    -1.2530 hc         1 D0K       0.042033
     45 H15        -10.2030    -0.5350    -0.3690 hc         1 D0K       0.042033
     46 H16         -9.3420     0.7280     0.5120 hc         1 D0K       0.042033
     47 H17         -1.1630    -2.3440     0.1770 h4         1 D0K       0.027100
     48 H18          1.1520    -0.9550    -0.9750 hn         1 D0K       0.323500
     49 H19          3.2220    -1.7290     2.0580 ha         1 D0K       0.170000
     50 H20          5.6290    -2.2090     1.7760 ha         1 D0K       0.141000
     51 H21          6.6360    -2.1220    -0.4920 h4         1 D0K       0.019100
     52 H22          3.0330    -1.1160    -2.1870 h4         1 D0K       0.016100
@<TRIPOS>BOND
     1     1     2 1   
     2     1    31 1   
     3     1    32 1   
     4     1    33 1   
     5     2     3 1   
     6     3     4 ar  
     7     3     6 ar  
     8     4     5 ar  
     9     4    34 1   
    10     5     8 ar  
    11     5    35 1   
    12     6     7 ar  
    13     6    36 1   
    14     7     8 ar  
    15     7    37 1   
    16     8     9 1   
    17     9    10 1   
    18     9    38 1   
    19    10    11 ar  
    20    10    21 ar  
    21    11    12 ar  
    22    11    39 1   
    23    12    13 1   
    24    12    19 ar  
    25    13    14 1   
    26    13    40 1   
    27    14    15 2   
    28    14    16 1   
    29    16    17 1   
    30    16    41 1   
    31    17    18 1   
    32    17    42 1   
    33    17    43 1   
    34    18    44 1   
    35    18    45 1   
    36    18    46 1   
    37    19    20 ar  
    38    20    21 ar  
    39    20    47 1   
    40    21    22 1   
    41    22    23 2   
    42    22    24 1   
    43    24    25 1   
    44    24    48 1   
    45    25    26 ar  
    46    25    30 ar  
    47    26    27 ar  
    48    26    49 1   
    49    27    28 ar  
    50    27    50 1   
    51    28    29 ar  
    52    28    51 1   
    53    29    30 ar  
    54    30    52 1   
@<TRIPOS>SUBSTRUCTURE
     1 D0K         1 TEMP              0 ****  ****    0 ROOT
