@<TRIPOS>MOLECULE
D0L
   57    58     1     0     0
SMALL
abcg2


@<TRIPOS>ATOM
      1 C1          -3.4360    -2.1310     1.6150 ca         1 D0L      -0.112500
      2 C2          -3.5990    -1.9350     0.2460 ca         1 D0L      -0.043300
      3 C15          1.9640     0.7200     0.7640 c3         1 D0L       0.178800
      4 C14          1.6060     2.9140     1.7790 c5         1 D0L       0.162800
      5 C7          -4.1780    -0.6580    -0.2940 c3         1 D0L      -0.041100
      6 C12         -0.7750     3.0990     1.4650 c5         1 D0L      -0.076400
      7 C10         -0.9630     1.1730    -0.1590 c          1 D0L       0.606100
      8 C3          -3.1810    -2.9440    -0.6210 ca         1 D0L      -0.112500
      9 C13          0.4800     3.9390     1.7540 c5         1 D0L      -0.080400
     10 C11         -0.2230     1.7140     1.0540 c5         1 D0L       0.090500
     11 C6          -2.8700    -3.3000     2.1080 ca         1 D0L      -0.117000
     12 C8          -3.1120     0.2790    -0.8750 c3         1 D0L      -0.036300
     13 C5          -2.4570    -4.2960     1.2340 ca         1 D0L      -0.136000
     14 C9          -3.7830     1.5410    -1.4810 c          1 D0L       0.716000
     15 C4          -2.6150    -4.1140    -0.1350 ca         1 D0L      -0.117000
     16 O2          -3.5880     2.6290    -0.9150 o          1 D0L      -0.722000
     17 O3          -0.5350     1.2720    -1.2990 o          1 D0L      -0.591100
     18 O1          -4.4830     1.3250    -2.4900 o          1 D0L      -0.722000
     19 N2           1.1810     1.9350     0.7960 n3         1 D0L      -0.694600
     20 C16          3.4020     0.9450     0.3220 c3         1 D0L      -0.075400
     21 C17          4.1450    -0.3650     0.0940 c3         1 D0L      -0.075400
     22 C18          5.6050    -0.1660    -0.2950 c3         1 D0L      -0.073400
     23 C19          6.3330    -1.4730    -0.5810 c3         1 D0L      -0.076400
     24 C20          7.7990    -1.2800    -0.9520 c3         1 D0L      -0.075400
     25 C21          8.5090    -2.5930    -1.2520 c3         1 D0L      -0.088100
     26 N1          -2.1350     0.5890     0.1380 ns         1 D0L      -0.464900
     27 H1          -3.7610    -1.3610     2.3070 ha         1 D0L       0.112000
     28 H2           1.9580     0.2130     1.7460 h1         1 D0L       0.031200
     29 H3           1.4920     0.0290     0.0600 h1         1 D0L       0.031200
     30 H4           2.5740     3.3450     1.5210 h1         1 D0L       0.021200
     31 H5           1.7030     2.4710     2.7860 h1         1 D0L       0.021200
     32 H6          -4.8950    -0.8730    -1.0870 hc         1 D0L       0.058200
     33 H7          -4.7310    -0.1390     0.4950 hc         1 D0L       0.058200
     34 H8          -1.4170     3.0030     2.3400 hc         1 D0L       0.067700
     35 H9          -1.3830     3.5390     0.6740 hc         1 D0L       0.067700
     36 H10         -3.3020    -2.8120    -1.6900 ha         1 D0L       0.112000
     37 H11          0.4100     4.4960     2.6880 hc         1 D0L       0.041700
     38 H12          0.6480     4.6610     0.9550 hc         1 D0L       0.041700
     39 H13         -0.3680     1.0090     1.8940 h1         1 D0L       0.016700
     40 H14         -2.7540    -3.4330     3.1760 ha         1 D0L       0.096500
     41 H15         -2.6020    -0.2520    -1.6840 h1         1 D0L       0.064700
     42 H16         -2.0180    -5.2080     1.6160 ha         1 D0L       0.094000
     43 H17         -2.3010    -4.8870    -0.8240 ha         1 D0L       0.096500
     44 H20          3.4020     1.5330    -0.6010 hc         1 D0L       0.043200
     45 H21          3.9400     1.5380     1.0690 hc         1 D0L       0.043200
     46 H22          4.0930    -0.9810     0.9980 hc         1 D0L       0.037700
     47 H23          3.6360    -0.9370    -0.6910 hc         1 D0L       0.037700
     48 H24          5.6600     0.4800    -1.1790 hc         1 D0L       0.035200
     49 H25          6.1230     0.3720     0.5060 hc         1 D0L       0.035200
     50 H26          6.2650    -2.1270     0.2950 hc         1 D0L       0.036700
     51 H27          5.8220    -2.0030    -1.3940 hc         1 D0L       0.036700
     52 H28          7.8680    -0.6180    -1.8210 hc         1 D0L       0.034700
     53 H29          8.3140    -0.7630    -0.1360 hc         1 D0L       0.034700
     54 H30          8.4700    -3.2660    -0.3940 hc         1 D0L       0.028033
     55 H31          8.0450    -3.1090    -2.0950 hc         1 D0L       0.028033
     56 H32          9.5600    -2.4350    -1.5000 hc         1 D0L       0.028033
     57 H33         -2.4620     0.6710     1.0890 hn         1 D0L       0.286500
@<TRIPOS>BOND
     1     1     2 ar  
     2     1    11 ar  
     3     1    27 1   
     4     2     5 1   
     5     2     8 ar  
     6     3    19 1   
     7     3    20 1   
     8     3    28 1   
     9     3    29 1   
    10     4     9 1   
    11     4    19 1   
    12     4    30 1   
    13     4    31 1   
    14     5    12 1   
    15     5    32 1   
    16     5    33 1   
    17     6     9 1   
    18     6    10 1   
    19     6    34 1   
    20     6    35 1   
    21     7    10 1   
    22     7    17 2   
    23     7    26 1   
    24     8    15 ar  
    25     8    36 1   
    26     9    37 1   
    27     9    38 1   
    28    10    19 1   
    29    10    39 1   
    30    11    13 ar  
    31    11    40 1   
    32    12    14 1   
    33    12    26 1   
    34    12    41 1   
    35    13    15 ar  
    36    13    42 1   
    37    14    16 1   
    38    14    18 1   
    39    15    43 1   
    40    20    21 1   
    41    20    44 1   
    42    20    45 1   
    43    21    22 1   
    44    21    46 1   
    45    21    47 1   
    46    22    23 1   
    47    22    48 1   
    48    22    49 1   
    49    23    24 1   
    50    23    50 1   
    51    23    51 1   
    52    24    25 1   
    53    24    52 1   
    54    24    53 1   
    55    25    54 1   
    56    25    55 1   
    57    25    56 1   
    58    26    57 1   
@<TRIPOS>SUBSTRUCTURE
     1 D0L         1 TEMP              0 ****  ****    0 ROOT
