@<TRIPOS>MOLECULE
D0L
   57    58     1     0     0
SMALL
No Charge or Current Charge


@<TRIPOS>ATOM
      1 C1          -1.0990    -2.1470     0.4940 ca         1 D0L      -0.112500
      2 C2          -2.0350    -1.7550    -0.4840 ca         1 D0L      -0.043300
      3 C15          1.3250     0.8410     0.7960 c3         1 D0L       0.178800
      4 C14          1.3110     3.1470     1.7970 c5         1 D0L       0.162800
      5 C7          -3.4290    -1.2870    -0.0770 c3         1 D0L      -0.041100
      6 C12         -0.8430     3.8940     0.8680 c5         1 D0L      -0.076400
      7 C10         -1.5750     1.6850    -0.1980 c          1 D0L       0.606100
      8 C3          -1.6760    -1.8120    -1.8450 ca         1 D0L      -0.112500
      9 C13          0.4580     4.4230     1.5530 c5         1 D0L      -0.080400
     10 C11         -0.6790     2.3490     0.9170 c5         1 D0L       0.090500
     11 C6           0.1780    -2.5960     0.1140 ca         1 D0L      -0.117000
     12 C8          -3.6630     0.2290    -0.2920 c3         1 D0L      -0.036300
     13 C5           0.5270    -2.6540    -1.2450 ca         1 D0L      -0.136000
     14 C9          -5.0980     0.6510     0.1480 c          1 D0L       0.716000
     15 C4          -0.3980    -2.2580    -2.2240 ca         1 D0L      -0.117000
     16 O2          -5.3610     0.6750     1.3430 o          1 D0L      -0.722000
     17 O3          -1.3970     1.6980    -1.4120 o          1 D0L      -0.591100
     18 O1          -5.8820     1.0160    -0.7180 o          1 D0L      -0.722000
     19 N2           0.8000     2.2260     0.7600 n3         1 D0L      -0.694600
     20 C16          2.8520     0.7400     0.5810 c3         1 D0L      -0.075400
     21 C17          3.3510    -0.7170     0.4880 c3         1 D0L      -0.075400
     22 C18          4.8810    -0.8270     0.3080 c3         1 D0L      -0.073400
     23 C19          5.3710    -2.2880     0.2030 c3         1 D0L      -0.076400
     24 C20          6.9000    -2.4010     0.0220 c3         1 D0L      -0.075400
     25 C21          7.3890    -3.8580    -0.0840 c3         1 D0L      -0.088100
     26 N1          -2.6390     1.0410     0.4080 ns         1 D0L      -0.464900
     27 H1          -1.3600    -2.1060     1.5490 ha         1 D0L       0.112000
     28 H2           1.0720     0.3690     1.7560 h1         1 D0L       0.031200
     29 H3           0.8350     0.2520     0.0090 h1         1 D0L       0.031200
     30 H4           2.3850     3.3510     1.6920 h1         1 D0L       0.021200
     31 H5           1.1360     2.7420     2.8040 h1         1 D0L       0.021200
     32 H6          -4.1830    -1.8430    -0.6480 hc         1 D0L       0.058200
     33 H7          -3.6140    -1.5290     0.9770 hc         1 D0L       0.058200
     34 H8          -1.7530     4.2260     1.3800 hc         1 D0L       0.067700
     35 H9          -0.9050     4.2550    -0.1660 hc         1 D0L       0.067700
     36 H10         -2.3890    -1.5110    -2.6090 ha         1 D0L       0.112000
     37 H11          0.2500     4.9480     2.4920 hc         1 D0L       0.041700
     38 H12          0.9820     5.1290     0.8990 hc         1 D0L       0.041700
     39 H13         -0.9850     1.9630     1.9010 h1         1 D0L       0.016700
     40 H14          0.8950    -2.9000     0.8730 ha         1 D0L       0.096500
     41 H15         -3.5920     0.4330    -1.3680 h1         1 D0L       0.064700
     42 H16          1.5140    -3.0040    -1.5390 ha         1 D0L       0.094000
     43 H17         -0.1280    -2.3000    -3.2770 ha         1 D0L       0.096500
     44 H20          3.1190     1.2720    -0.3400 hc         1 D0L       0.043200
     45 H21          3.3720     1.2410     1.4070 hc         1 D0L       0.043200
     46 H22          3.0540    -1.2600     1.3940 hc         1 D0L       0.037700
     47 H23          2.8580    -1.2090    -0.3590 hc         1 D0L       0.037700
     48 H24          5.1770    -0.2810    -0.5960 hc         1 D0L       0.035200
     49 H25          5.3790    -0.3390     1.1560 hc         1 D0L       0.035200
     50 H26          5.0740    -2.8330     1.1070 hc         1 D0L       0.036700
     51 H27          4.8710    -2.7750    -0.6440 hc         1 D0L       0.036700
     52 H28          7.2000    -1.8580    -0.8830 hc         1 D0L       0.034700
     53 H29          7.4040    -1.9170     0.8680 hc         1 D0L       0.034700
     54 H30          7.1340    -4.4200     0.8230 hc         1 D0L       0.028033
     55 H31          6.9290    -4.3610    -0.9440 hc         1 D0L       0.028033
     56 H32          8.4780    -3.8880    -0.2120 hc         1 D0L       0.028033
     57 H33         -2.7000     1.1130     1.4170 hn         1 D0L       0.286500
@<TRIPOS>BOND
     1     1     2 ar  
     2     1    11 ar  
     3     1    27 1   
     4     2     5 1   
     5     2     8 ar  
     6     3    19 1   
     7     3    20 1   
     8     3    28 1   
     9     3    29 1   
    10     4     9 1   
    11     4    19 1   
    12     4    30 1   
    13     4    31 1   
    14     5    12 1   
    15     5    32 1   
    16     5    33 1   
    17     6     9 1   
    18     6    10 1   
    19     6    34 1   
    20     6    35 1   
    21     7    10 1   
    22     7    17 2   
    23     7    26 1   
    24     8    15 ar  
    25     8    36 1   
    26     9    37 1   
    27     9    38 1   
    28    10    19 1   
    29    10    39 1   
    30    11    13 ar  
    31    11    40 1   
    32    12    14 1   
    33    12    26 1   
    34    12    41 1   
    35    13    15 ar  
    36    13    42 1   
    37    14    16 1   
    38    14    18 1   
    39    15    43 1   
    40    20    21 1   
    41    20    44 1   
    42    20    45 1   
    43    21    22 1   
    44    21    46 1   
    45    21    47 1   
    46    22    23 1   
    47    22    48 1   
    48    22    49 1   
    49    23    24 1   
    50    23    50 1   
    51    23    51 1   
    52    24    25 1   
    53    24    52 1   
    54    24    53 1   
    55    25    54 1   
    56    25    55 1   
    57    25    56 1   
    58    26    57 1   
@<TRIPOS>SUBSTRUCTURE
     1 D0L         1 TEMP              0 ****  ****    0 ROOT
