@<TRIPOS>MOLECULE
D0M
   19    18     1     0     0
SMALL
No Charge or Current Charge


@<TRIPOS>ATOM
      1 N1           0.0090     1.4670    -0.1310 n8         1 D0M      -0.993200
      2 C1           0.0280     0.0380     0.2350 c3         1 D0M       0.157500
      3 C2          -1.2470    -0.6690    -0.2900 c3         1 D0M      -0.090900
      4 C3          -2.5700    -0.1260     0.2970 c3         1 D0M      -0.086100
      5 C4           1.3220    -0.6400    -0.2830 c3         1 D0M      -0.090900
      6 C5           2.6280    -0.0760     0.3210 c3         1 D0M      -0.086100
      7 H1           0.0030     1.5420    -1.1540 hn         1 D0M       0.390500
      8 H2           0.0240    -0.0310     1.3340 h1         1 D0M       0.056700
      9 H3          -1.2840    -0.6010    -1.3840 hc         1 D0M       0.037950
     10 H4          -1.1820    -1.7370    -0.0470 hc         1 D0M       0.037950
     11 H5          -2.5580    -0.1770     1.3930 hc         1 D0M       0.033533
     12 H6          -2.7420     0.9150    -0.0010 hc         1 D0M       0.033533
     13 H7          -3.4170    -0.7230    -0.0620 hc         1 D0M       0.033533
     14 H8           1.2760    -1.7110    -0.0490 hc         1 D0M       0.037950
     15 H9           1.3690    -0.5620    -1.3760 hc         1 D0M       0.037950
     16 H10          2.7710     0.9750     0.0450 hc         1 D0M       0.033533
     17 H11          2.6120    -0.1480     1.4150 hc         1 D0M       0.033533
     18 H12          3.4920    -0.6420    -0.0460 hc         1 D0M       0.033533
     19 H13         -0.8970     1.8620     0.1430 hn         1 D0M       0.390500
@<TRIPOS>BOND
     1     1     2 1   
     2     1     7 1   
     3     1    19 1   
     4     2     3 1   
     5     2     5 1   
     6     2     8 1   
     7     3     4 1   
     8     3     9 1   
     9     3    10 1   
    10     4    11 1   
    11     4    12 1   
    12     4    13 1   
    13     5     6 1   
    14     5    14 1   
    15     5    15 1   
    16     6    16 1   
    17     6    17 1   
    18     6    18 1   
@<TRIPOS>SUBSTRUCTURE
     1 D0M         1 TEMP              0 ****  ****    0 ROOT
