@<TRIPOS>MOLECULE
D0M
   19    18     1     0     0
SMALL
bcc


@<TRIPOS>ATOM
      1 N1           0.0530     1.4600    -0.1400 n8         1 D0M      -0.882800
      2 C1           0.0210     0.0470     0.2210 c3         1 D0M       0.157500
      3 C2          -1.2240    -0.7010    -0.2710 c3         1 D0M      -0.090900
      4 C3          -2.5350    -0.1380     0.2610 c3         1 D0M      -0.086100
      5 C4           1.2890    -0.6410    -0.2820 c3         1 D0M      -0.090900
      6 C5           2.5730    -0.0760     0.3080 c3         1 D0M      -0.086100
      7 H1          -0.0740     1.5510    -1.1430 hn         1 D0M       0.335300
      8 H2           0.0280    -0.0000     1.3170 h1         1 D0M       0.056700
      9 H3          -1.2350    -0.6870    -1.3670 hc         1 D0M       0.037950
     10 H4          -1.1390    -1.7530     0.0180 hc         1 D0M       0.037950
     11 H5          -2.5560    -0.1470     1.3530 hc         1 D0M       0.033533
     12 H6          -2.7000     0.8900    -0.0660 hc         1 D0M       0.033533
     13 H7          -3.3850    -0.7260    -0.0880 hc         1 D0M       0.033533
     14 H8           1.2190    -1.7080    -0.0550 hc         1 D0M       0.037950
     15 H9           1.3220    -0.5690    -1.3750 hc         1 D0M       0.037950
     16 H10          2.6760     0.9850     0.0810 hc         1 D0M       0.033533
     17 H11          2.5870    -0.1840     1.3950 hc         1 D0M       0.033533
     18 H12          3.4490    -0.5920    -0.0860 hc         1 D0M       0.033533
     19 H13         -0.7310     1.9440     0.2790 hn         1 D0M       0.335300
@<TRIPOS>BOND
     1     1     2 1   
     2     1     7 1   
     3     1    19 1   
     4     2     3 1   
     5     2     5 1   
     6     2     8 1   
     7     3     4 1   
     8     3     9 1   
     9     3    10 1   
    10     4    11 1   
    11     4    12 1   
    12     4    13 1   
    13     5     6 1   
    14     5    14 1   
    15     5    15 1   
    16     6    16 1   
    17     6    17 1   
    18     6    18 1   
@<TRIPOS>SUBSTRUCTURE
     1 D0M         1 TEMP              0 ****  ****    0 ROOT
