@<TRIPOS>MOLECULE
D0N
   44    45     1     0     0
SMALL
abcg2


@<TRIPOS>ATOM
      1 F3          -1.7700    -2.2910    -0.8900 f          1 D0N      -0.270000
      2 C3          -2.1500    -1.2450    -0.0470 c6         1 D0N       0.176300
      3 C2          -3.5990    -0.9020    -0.3190 c6         1 D0N       0.130300
      4 O2          -4.3880    -2.0130     0.0060 oh         1 D0N      -0.687000
      5 C1          -3.9800     0.3490     0.4800 c6         1 D0N       0.351300
      6 O1          -3.9600     0.0320     1.8310 oh         1 D0N      -0.661000
      7 O5          -3.1120     1.3990     0.1490 os         1 D0N      -0.467000
      8 C5          -1.7440     1.1810     0.4450 c6         1 D0N       0.166300
      9 C6          -0.9940     2.4280     0.0260 c3         1 D0N       0.167600
     10 O6          -1.4490     3.5090     0.8040 oh         1 D0N      -0.715000
     11 C4          -1.2400    -0.0560    -0.3070 c6         1 D0N       0.121300
     12 O8           0.0660    -0.3620     0.1280 os         1 D0N      -0.464000
     13 C9           0.9880    -0.7430    -0.8480 c6         1 D0N       0.355300
     14 C8           1.9020    -1.8350    -0.2810 c6         1 D0N       0.121300
     15 O7           1.1850    -2.8810     0.3180 oh         1 D0N      -0.708000
     16 O9           1.7410     0.3390    -1.3080 os         1 D0N      -0.459000
     17 C10          2.6020     0.9470    -0.3590 c6         1 D0N       0.168300
     18 C11          3.2820     2.1080    -1.0520 c3         1 D0N       0.169600
     19 O10          2.3050     3.0540    -1.4160 oh         1 D0N      -0.720000
     20 C12          3.6060    -0.0770     0.1680 c6         1 D0N       0.148300
     21 O4           4.4090     0.5560     1.1330 oh         1 D0N      -0.718000
     22 C7           2.8550    -1.2630     0.7580 c6         1 D0N       0.140300
     23 O3           3.8160    -2.2110     1.1610 oh         1 D0N      -0.671000
     24 H1          -2.0180    -1.5960     0.9810 h1         1 D0N       0.102700
     25 H2          -3.6980    -0.6380    -1.3810 h1         1 D0N       0.051700
     26 H3          -5.2670    -1.8830    -0.3630 ho         1 D0N       0.507000
     27 H4          -4.9710     0.7000     0.1670 h2         1 D0N       0.062700
     28 H5          -4.3720     0.7470     2.3280 ho         1 D0N       0.459000
     29 H6          -1.6000     1.0240     1.5220 h1         1 D0N       0.076700
     30 H7           0.0760     2.2580     0.1650 h1         1 D0N       0.041200
     31 H8          -1.1570     2.5970    -1.0480 h1         1 D0N       0.041200
     32 H9          -0.8930     4.2690     0.6060 ho         1 D0N       0.506000
     33 H10         -1.2550     0.1660    -1.3840 h1         1 D0N       0.061700
     34 H11          0.4740    -1.1240    -1.7380 h2         1 D0N       0.077700
     35 H12          2.5060    -2.2010    -1.1250 h1         1 D0N       0.053700
     36 H13          0.6650    -3.3320    -0.3530 ho         1 D0N       0.519000
     37 H14          2.0260     1.3340     0.4930 h1         1 D0N       0.071700
     38 H15          4.0220     2.5360    -0.3680 h1         1 D0N       0.037200
     39 H16          3.8300     1.7290    -1.9260 h1         1 D0N       0.037200
     40 H17          2.7530     3.8020    -1.8210 ho         1 D0N       0.505000
     41 H18          4.2120    -0.4370    -0.6800 h1         1 D0N       0.049700
     42 H19          5.0220    -0.0970     1.4870 ho         1 D0N       0.526000
     43 H20          2.2760    -0.9060     1.6230 h1         1 D0N       0.070700
     44 H21          3.3760    -2.8960     1.6740 ho         1 D0N       0.468000
@<TRIPOS>BOND
     1     1     2 1   
     2     2     3 1   
     3     2    11 1   
     4     2    24 1   
     5     3     4 1   
     6     3     5 1   
     7     3    25 1   
     8     4    26 1   
     9     5     6 1   
    10     5     7 1   
    11     5    27 1   
    12     6    28 1   
    13     7     8 1   
    14     8     9 1   
    15     8    11 1   
    16     8    29 1   
    17     9    10 1   
    18     9    30 1   
    19     9    31 1   
    20    10    32 1   
    21    11    12 1   
    22    11    33 1   
    23    12    13 1   
    24    13    14 1   
    25    13    16 1   
    26    13    34 1   
    27    14    15 1   
    28    14    22 1   
    29    14    35 1   
    30    15    36 1   
    31    16    17 1   
    32    17    18 1   
    33    17    20 1   
    34    17    37 1   
    35    18    19 1   
    36    18    38 1   
    37    18    39 1   
    38    19    40 1   
    39    20    21 1   
    40    20    22 1   
    41    20    41 1   
    42    21    42 1   
    43    22    23 1   
    44    22    43 1   
    45    23    44 1   
@<TRIPOS>SUBSTRUCTURE
     1 D0N         1 TEMP              0 ****  ****    0 ROOT
