@<TRIPOS>MOLECULE
D0N
   44    45     1     0     0
SMALL
No Charge or Current Charge


@<TRIPOS>ATOM
      1 F3          -1.7290    -1.9000    -1.6750 f          1 D0N      -0.270000
      2 C3          -2.2080    -1.1050    -0.6070 c6         1 D0N       0.176300
      3 C2          -3.5440    -0.4450    -1.0720 c6         1 D0N       0.130300
      4 O2          -4.5750    -1.4350    -1.3150 oh         1 D0N      -0.687000
      5 C1          -4.0260     0.6060    -0.0200 c6         1 D0N       0.351300
      6 O1          -4.4210    -0.0240     1.1960 oh         1 D0N      -0.661000
      7 O5          -2.9750     1.5350     0.2860 os         1 D0N      -0.467000
      8 C5          -1.7470     0.9520     0.8090 c6         1 D0N       0.166300
      9 C6          -0.7670     2.1170     1.1710 c3         1 D0N       0.167600
     10 O6          -1.3370     3.0830     2.0800 oh         1 D0N      -0.715000
     11 C4          -1.1300    -0.0400    -0.2200 c6         1 D0N       0.121300
     12 O8           0.0720    -0.6320     0.3500 os         1 D0N      -0.464000
     13 C9           1.0140    -1.2240    -0.5750 c6         1 D0N       0.355300
     14 C8           2.1390    -1.9890     0.2030 c6         1 D0N       0.121300
     15 O7           1.5910    -2.9460     1.1420 oh         1 D0N      -0.708000
     16 O9           1.5870    -0.1980    -1.4170 os         1 D0N      -0.459000
     17 C10          2.4010     0.7940    -0.7330 c6         1 D0N       0.168300
     18 C11          2.8550     1.8630    -1.7800 c3         1 D0N       0.169600
     19 O10          1.7530     2.4940    -2.4660 oh         1 D0N      -0.720000
     20 C12          3.6030     0.0960    -0.0270 c6         1 D0N       0.148300
     21 O4           4.4310     1.0270     0.6930 oh         1 D0N      -0.718000
     22 C7           3.0540    -0.9780     0.9540 c6         1 D0N       0.140300
     23 O3           4.1370    -1.6690     1.6060 oh         1 D0N      -0.671000
     24 H1          -2.3940    -1.7680     0.2490 h1         1 D0N       0.102700
     25 H2          -3.3380     0.0990    -2.0050 h1         1 D0N       0.051700
     26 H3          -4.9960    -1.6010    -0.4370 ho         1 D0N       0.507000
     27 H4          -4.8800     1.1600    -0.4400 h2         1 D0N       0.062700
     28 H5          -4.6180     0.7150     1.8110 ho         1 D0N       0.459000
     29 H6          -1.9690     0.4090     1.7400 h1         1 D0N       0.076700
     30 H7           0.1360     1.6780     1.6150 h1         1 D0N       0.041200
     31 H8          -0.4650     2.6100     0.2360 h1         1 D0N       0.041200
     32 H9          -0.6820     3.8130     2.1750 ho         1 D0N       0.506000
     33 H10         -0.8550     0.5340    -1.1180 h1         1 D0N       0.061700
     34 H11          0.5030    -1.9600    -1.2100 h2         1 D0N       0.077700
     35 H12          2.7530    -2.5170    -0.5420 h1         1 D0N       0.053700
     36 H13          0.7810    -2.5260     1.5200 ho         1 D0N       0.519000
     37 H14          1.7870     1.3040     0.0220 h1         1 D0N       0.071700
     38 H15          3.4520     2.6230    -1.2590 h1         1 D0N       0.037200
     39 H16          3.5180     1.3700    -2.5040 h1         1 D0N       0.037200
     40 H17          2.1420     3.0800    -3.1560 ho         1 D0N       0.505000
     41 H18          4.2030    -0.4130    -0.7970 h1         1 D0N       0.049700
     42 H19          4.9380     0.4680     1.3320 ho         1 D0N       0.526000
     43 H20          2.4370    -0.4620     1.7070 h1         1 D0N       0.070700
     44 H21          3.7470    -2.5190     1.9180 ho         1 D0N       0.468000
@<TRIPOS>BOND
     1     1     2 1   
     2     2     3 1   
     3     2    11 1   
     4     2    24 1   
     5     3     4 1   
     6     3     5 1   
     7     3    25 1   
     8     4    26 1   
     9     5     6 1   
    10     5     7 1   
    11     5    27 1   
    12     6    28 1   
    13     7     8 1   
    14     8     9 1   
    15     8    11 1   
    16     8    29 1   
    17     9    10 1   
    18     9    30 1   
    19     9    31 1   
    20    10    32 1   
    21    11    12 1   
    22    11    33 1   
    23    12    13 1   
    24    13    14 1   
    25    13    16 1   
    26    13    34 1   
    27    14    15 1   
    28    14    22 1   
    29    14    35 1   
    30    15    36 1   
    31    16    17 1   
    32    17    18 1   
    33    17    20 1   
    34    17    37 1   
    35    18    19 1   
    36    18    38 1   
    37    18    39 1   
    38    19    40 1   
    39    20    21 1   
    40    20    22 1   
    41    20    41 1   
    42    21    42 1   
    43    22    23 1   
    44    22    43 1   
    45    23    44 1   
@<TRIPOS>SUBSTRUCTURE
     1 D0N         1 TEMP              0 ****  ****    0 ROOT
