@<TRIPOS>MOLECULE
D0O
   72    75     1     0     0
SMALL
No Charge or Current Charge


@<TRIPOS>ATOM
      1 C1           3.0420     1.6470     1.4640 c6         1 D0O      -0.071400
      2 C2           3.5440     0.1860     1.5820 c6         1 D0O      -0.083400
      3 C3           4.3970    -0.2060     0.3540 c6         1 D0O       0.223300
      4 C4           3.5460    -0.0150    -0.9220 c6         1 D0O      -0.097400
      5 C5           3.0100     1.4480    -1.0680 c6         1 D0O      -0.045700
      6 C6           2.2070     1.6120    -2.3910 c6         1 D0O      -0.067400
      7 C7           0.8480     0.8730    -2.3530 c6         1 D0O      -0.072400
      8 C8          -0.0130     1.3010    -1.1320 c6         1 D0O      -0.044700
      9 C9           0.7860     1.1360     0.2130 c6         1 D0O      -0.045700
     10 C10          2.1730     1.9170     0.1850 c6         1 D0O      -0.033000
     11 C11         -0.1240     1.4900     1.4390 c6         1 D0O      -0.069400
     12 C12         -1.4610     0.6940     1.4480 c6         1 D0O      -0.061400
     13 C13         -2.2770     0.8760     0.1270 c5         1 D0O      -0.039000
     14 C14         -1.3320     0.4760    -1.0550 c5         1 D0O      -0.067700
     15 C15         -2.2810     0.5260    -2.2760 c5         1 D0O      -0.072400
     16 C16         -3.6090    -0.0660    -1.7110 c5         1 D0O      -0.076400
     17 C17         -3.4100    -0.1960    -0.1510 c5         1 D0O      -0.047700
     18 C18         -2.8230     2.3460     0.0800 c3         1 D0O      -0.075100
     19 C19          1.9510     3.4700     0.1210 c3         1 D0O      -0.083100
     20 C20         -4.7660    -0.1330     0.6490 c3         1 D0O      -0.057700
     21 C21         -4.5810    -0.1230     2.1900 c3         1 D0O      -0.080100
     22 C22         -5.7380    -1.2760     0.2070 c3         1 D0O      -0.056400
     23 C23         -7.1820    -1.2040     0.7760 c3         1 D0O      -0.206400
     24 C24         -8.0960    -2.1980     0.0350 c          1 D0O       0.716000
     25 C25          6.8560    -1.3180     1.9620 c3         1 D0O      -0.387100
     26 O4A         -8.6710    -1.8140    -0.9720 o          1 D0O      -0.743000
     27 O4          -8.1710    -3.3400     0.4610 o          1 D0O      -0.743000
     28 O1           4.7680    -1.5900     0.4660 os         1 D0O      -0.567700
     29 S            6.3580    -2.0130     0.3890 s6         1 D0O       1.343700
     30 OP2          7.0070    -1.2560    -0.6890 o          1 D0O      -0.538500
     31 OP1          6.4630    -3.4760     0.4540 o          1 D0O      -0.538500
     32 H1           2.5030     1.9280     2.3770 hc         1 D0O       0.041200
     33 H2           3.9230     2.3040     1.4460 hc         1 D0O       0.041200
     34 H3           4.1500     0.0860     2.4920 hc         1 D0O       0.058200
     35 H4           2.7020    -0.5080     1.7010 hc         1 D0O       0.058200
     36 H5           5.2860     0.4420     0.3030 h1         1 D0O       0.038700
     37 H6           4.1630    -0.2620    -1.7960 hc         1 D0O       0.066200
     38 H7           2.7260    -0.7430    -0.9180 hc         1 D0O       0.066200
     39 H8           3.8940     2.0980    -1.1470 hc         1 D0O       0.038700
     40 H9           2.0390     2.6770    -2.6000 hc         1 D0O       0.038700
     41 H10          2.8020     1.2400    -3.2360 hc         1 D0O       0.038700
     42 H11          0.3070     1.0870    -3.2850 hc         1 D0O       0.042200
     43 H12          1.0090    -0.2130    -2.3410 hc         1 D0O       0.042200
     44 H13         -0.2840     2.3540    -1.2700 hc         1 D0O       0.048700
     45 H14          1.0030     0.0660     0.3100 hc         1 D0O       0.046700
     46 H15          0.4000     1.2640     2.3760 hc         1 D0O       0.031200
     47 H16         -0.3380     2.5650     1.4670 hc         1 D0O       0.031200
     48 H17         -1.2400    -0.3710     1.6090 hc         1 D0O       0.042700
     49 H18         -2.0390     1.0220     2.3170 hc         1 D0O       0.042700
     50 H19         -0.9870    -0.5590    -0.9250 hc         1 D0O       0.043700
     51 H20         -2.4200     1.5500    -2.6430 hc         1 D0O       0.032700
     52 H21         -1.9000    -0.0620    -3.1180 hc         1 D0O       0.032700
     53 H22         -4.4530     0.5870    -1.9630 hc         1 D0O       0.051700
     54 H23         -3.8270    -1.0410    -2.1620 hc         1 D0O       0.051700
     55 H24         -3.0060    -1.1930     0.0670 hc         1 D0O       0.043700
     56 H25         -2.0230     3.0910     0.0300 hc         1 D0O       0.029367
     57 H26         -3.4770     2.5290    -0.7790 hc         1 D0O       0.029367
     58 H27         -3.4150     2.5730     0.9740 hc         1 D0O       0.029367
     59 H28          1.3120     3.7830    -0.7090 hc         1 D0O       0.033033
     60 H29          1.4960     3.8540     1.0420 hc         1 D0O       0.033033
     61 H30          2.9040     4.0000     0.0010 hc         1 D0O       0.033033
     62 H31         -5.2610     0.8120     0.3920 hc         1 D0O       0.036700
     63 H32         -3.9240    -0.9390     2.5140 hc         1 D0O       0.023700
     64 H33         -4.1620     0.8300     2.5230 hc         1 D0O       0.023700
     65 H34         -5.5340    -0.2220     2.7190 hc         1 D0O       0.023700
     66 H35         -5.8260    -1.2660    -0.8850 hc         1 D0O       0.041200
     67 H36         -5.2950    -2.2460     0.4670 hc         1 D0O       0.041200
     68 H37         -7.1170    -1.4830     1.8340 hc         1 D0O       0.015200
     69 H38         -7.5250    -0.1750     0.6070 hc         1 D0O       0.015200
     70 H39          6.2140    -1.7600     2.7310 h1         1 D0O       0.102367
     71 H40          7.9050    -1.5900     2.1160 h1         1 D0O       0.102367
     72 H41          6.7360    -0.2320     1.9120 h1         1 D0O       0.102367
@<TRIPOS>BOND
     1     1     2 1   
     2     1    10 1   
     3     1    32 1   
     4     1    33 1   
     5     2     3 1   
     6     2    34 1   
     7     2    35 1   
     8     3     4 1   
     9     3    28 1   
    10     3    36 1   
    11     4     5 1   
    12     4    37 1   
    13     4    38 1   
    14     5     6 1   
    15     5    10 1   
    16     5    39 1   
    17     6     7 1   
    18     6    40 1   
    19     6    41 1   
    20     7     8 1   
    21     7    42 1   
    22     7    43 1   
    23     8     9 1   
    24     8    14 1   
    25     8    44 1   
    26     9    10 1   
    27     9    11 1   
    28     9    45 1   
    29    10    19 1   
    30    11    12 1   
    31    11    46 1   
    32    11    47 1   
    33    12    13 1   
    34    12    48 1   
    35    12    49 1   
    36    13    14 1   
    37    13    17 1   
    38    13    18 1   
    39    14    15 1   
    40    14    50 1   
    41    15    16 1   
    42    15    51 1   
    43    15    52 1   
    44    16    17 1   
    45    16    53 1   
    46    16    54 1   
    47    17    20 1   
    48    17    55 1   
    49    18    56 1   
    50    18    57 1   
    51    18    58 1   
    52    19    59 1   
    53    19    60 1   
    54    19    61 1   
    55    20    21 1   
    56    20    22 1   
    57    20    62 1   
    58    21    63 1   
    59    21    64 1   
    60    21    65 1   
    61    22    23 1   
    62    22    66 1   
    63    22    67 1   
    64    23    24 1   
    65    23    68 1   
    66    23    69 1   
    67    24    26 1   
    68    24    27 1   
    69    25    29 1   
    70    25    70 1   
    71    25    71 1   
    72    25    72 1   
    73    28    29 1   
    74    29    30 2   
    75    29    31 2   
@<TRIPOS>SUBSTRUCTURE
     1 D0O         1 TEMP              0 ****  ****    0 ROOT
