@<TRIPOS>MOLECULE
D0O
   72    75     1     0     0
SMALL
abcg2


@<TRIPOS>ATOM
      1 C1           2.9110     1.6330     1.5230 c6         1 D0O      -0.071400
      2 C2           3.4480     0.2130     1.6450 c6         1 D0O      -0.083400
      3 C3           4.3030    -0.0830     0.4320 c6         1 D0O       0.223300
      4 C4           3.5350     0.0950    -0.8610 c6         1 D0O      -0.097400
      5 C5           2.9360     1.5040    -0.9700 c6         1 D0O      -0.045700
      6 C6           2.1630     1.6560    -2.2800 c6         1 D0O      -0.067400
      7 C7           0.8440     0.8920    -2.2720 c6         1 D0O      -0.072400
      8 C8          -0.0210     1.2460    -1.0650 c6         1 D0O      -0.044700
      9 C9           0.7650     1.0550     0.2450 c6         1 D0O      -0.045700
     10 C10          2.0750     1.8870     0.2580 c6         1 D0O      -0.033000
     11 C11         -0.1190     1.2800     1.4750 c6         1 D0O      -0.069400
     12 C12         -1.4350     0.4970     1.4500 c6         1 D0O      -0.061400
     13 C13         -2.2230     0.7270     0.1610 c5         1 D0O      -0.039000
     14 C14         -1.2770     0.3890    -1.0060 c5         1 D0O      -0.067700
     15 C15         -2.1890     0.3470    -2.2260 c5         1 D0O      -0.072400
     16 C16         -3.5130    -0.2160    -1.6730 c5         1 D0O      -0.076400
     17 C17         -3.3780    -0.2650    -0.1280 c5         1 D0O      -0.047700
     18 C18         -2.7370     2.1680     0.0910 c3         1 D0O      -0.075100
     19 C19          1.7840     3.3920     0.2270 c3         1 D0O      -0.083100
     20 C20         -4.7270    -0.0720     0.5810 c3         1 D0O      -0.057700
     21 C21         -4.5960    -0.0170     2.1010 c3         1 D0O      -0.080100
     22 C22         -5.7020    -1.1880     0.1740 c3         1 D0O      -0.056400
     23 C23         -7.1520    -0.9270     0.5500 c3         1 D0O      -0.206400
     24 C24         -8.1640    -1.9970     0.1000 c          1 D0O       0.716000
     25 C25          7.1530    -1.2930     1.6450 c3         1 D0O      -0.387100
     26 O4A         -7.7440    -2.9580    -0.5740 o          1 D0O      -0.743000
     27 O4          -9.3490    -1.8060     0.4510 o          1 D0O      -0.743000
     28 O1           4.7660    -1.4610     0.5370 os         1 D0O      -0.567700
     29 S            6.2790    -1.8250     0.1980 s6         1 D0O       1.343700
     30 OP2          6.7360    -1.0540    -0.9440 o          1 D0O      -0.538500
     31 OP1          6.2980    -3.2710     0.1270 o          1 D0O      -0.538500
     32 H1           2.3440     1.8950     2.4180 hc         1 D0O       0.041200
     33 H2           3.7650     2.3210     1.5040 hc         1 D0O       0.041200
     34 H3           4.0440     0.1200     2.5570 hc         1 D0O       0.058200
     35 H4           2.6340    -0.5140     1.7170 hc         1 D0O       0.058200
     36 H5           5.1650     0.5950     0.4370 h1         1 D0O       0.038700
     37 H6           4.2050    -0.0680    -1.7090 hc         1 D0O       0.066200
     38 H7           2.7570    -0.6710    -0.9200 hc         1 D0O       0.066200
     39 H8           3.7820     2.2050    -0.9940 hc         1 D0O       0.038700
     40 H9           1.9640     2.7160    -2.4650 hc         1 D0O       0.038700
     41 H10          2.7860     1.3200    -3.1130 hc         1 D0O       0.038700
     42 H11          0.2990     1.1020    -3.1960 hc         1 D0O       0.042200
     43 H12          1.0300    -0.1880    -2.2720 hc         1 D0O       0.042200
     44 H13         -0.3220     2.2970    -1.1600 hc         1 D0O       0.048700
     45 H14          1.0480    -0.0080     0.2650 hc         1 D0O       0.046700
     46 H15          0.4240     0.9830     2.3760 hc         1 D0O       0.031200
     47 H16         -0.3300     2.3460     1.5950 hc         1 D0O       0.031200
     48 H17         -1.2230    -0.5750     1.5420 hc         1 D0O       0.042700
     49 H18         -2.0120     0.7700     2.3350 hc         1 D0O       0.042700
     50 H19         -0.9360    -0.6440    -0.8280 hc         1 D0O       0.043700
     51 H20         -2.3280     1.3490    -2.6430 hc         1 D0O       0.032700
     52 H21         -1.7800    -0.2680    -3.0290 hc         1 D0O       0.032700
     53 H22         -4.3570     0.4180    -1.9590 hc         1 D0O       0.051700
     54 H23         -3.7250    -1.2050    -2.0810 hc         1 D0O       0.051700
     55 H24         -3.0050    -1.2610     0.1520 hc         1 D0O       0.043700
     56 H25         -1.9390     2.9020     0.1910 hc         1 D0O       0.029367
     57 H26         -3.2500     2.3810    -0.8490 hc         1 D0O       0.029367
     58 H27         -3.4490     2.3630     0.8950 hc         1 D0O       0.029367
     59 H28          1.1590     3.6990    -0.6110 hc         1 D0O       0.033033
     60 H29          1.2860     3.7210     1.1390 hc         1 D0O       0.033033
     61 H30          2.7190     3.9520     0.1570 hc         1 D0O       0.033033
     62 H31         -5.1520     0.8810     0.2390 hc         1 D0O       0.036700
     63 H32         -4.0620    -0.8920     2.4790 hc         1 D0O       0.023700
     64 H33         -4.0570     0.8690     2.4370 hc         1 D0O       0.023700
     65 H34         -5.5710     0.0090     2.5890 hc         1 D0O       0.023700
     66 H35         -5.6540    -1.3460    -0.9050 hc         1 D0O       0.041200
     67 H36         -5.3610    -2.1280     0.6230 hc         1 D0O       0.041200
     68 H37         -7.2620    -0.8040     1.6320 hc         1 D0O       0.015200
     69 H38         -7.4700     0.0330     0.1250 hc         1 D0O       0.015200
     70 H39          6.7460    -1.8040     2.5140 h1         1 D0O       0.102367
     71 H40          8.2010    -1.5540     1.5130 h1         1 D0O       0.102367
     72 H41          7.0620    -0.2150     1.7620 h1         1 D0O       0.102367
@<TRIPOS>BOND
     1     1     2 1   
     2     1    10 1   
     3     1    32 1   
     4     1    33 1   
     5     2     3 1   
     6     2    34 1   
     7     2    35 1   
     8     3     4 1   
     9     3    28 1   
    10     3    36 1   
    11     4     5 1   
    12     4    37 1   
    13     4    38 1   
    14     5     6 1   
    15     5    10 1   
    16     5    39 1   
    17     6     7 1   
    18     6    40 1   
    19     6    41 1   
    20     7     8 1   
    21     7    42 1   
    22     7    43 1   
    23     8     9 1   
    24     8    14 1   
    25     8    44 1   
    26     9    10 1   
    27     9    11 1   
    28     9    45 1   
    29    10    19 1   
    30    11    12 1   
    31    11    46 1   
    32    11    47 1   
    33    12    13 1   
    34    12    48 1   
    35    12    49 1   
    36    13    14 1   
    37    13    17 1   
    38    13    18 1   
    39    14    15 1   
    40    14    50 1   
    41    15    16 1   
    42    15    51 1   
    43    15    52 1   
    44    16    17 1   
    45    16    53 1   
    46    16    54 1   
    47    17    20 1   
    48    17    55 1   
    49    18    56 1   
    50    18    57 1   
    51    18    58 1   
    52    19    59 1   
    53    19    60 1   
    54    19    61 1   
    55    20    21 1   
    56    20    22 1   
    57    20    62 1   
    58    21    63 1   
    59    21    64 1   
    60    21    65 1   
    61    22    23 1   
    62    22    66 1   
    63    22    67 1   
    64    23    24 1   
    65    23    68 1   
    66    23    69 1   
    67    24    26 1   
    68    24    27 1   
    69    25    29 1   
    70    25    70 1   
    71    25    71 1   
    72    25    72 1   
    73    28    29 1   
    74    29    30 2   
    75    29    31 2   
@<TRIPOS>SUBSTRUCTURE
     1 D0O         1 TEMP              0 ****  ****    0 ROOT
