@<TRIPOS>MOLECULE
D0P
   31    32     1     0     0
SMALL
No Charge or Current Charge


@<TRIPOS>ATOM
      1 C10         -4.7530    -0.9520     0.2760 ca         1 D0P       0.202000
      2 C13         -3.2400     0.7780     1.0670 ca         1 D0P      -0.052000
      3 C15          1.5250     1.0640    -0.0520 ca         1 D0P      -0.044000
      4 C17          3.1360    -0.9460    -0.1840 c          1 D0P       0.618100
      5 C02          1.5320     2.4760    -0.0190 ca         1 D0P       0.091100
      6 C03          0.3290     3.1920     0.0620 ca         1 D0P      -0.178000
      7 C04         -0.8960     2.5090     0.1090 ca         1 D0P      -0.082000
      8 C05         -0.9420     1.0960     0.0700 cp         1 D0P      -0.040000
      9 C06         -2.2540     0.3780     0.1290 cp         1 D0P      -0.088000
     10 C07         -2.5640    -0.7060    -0.7380 ca         1 D0P       0.214000
     11 C09         -3.8010    -1.3640    -0.6640 ca         1 D0P      -0.200000
     12 C12         -4.4780     0.1160     1.1400 ca         1 D0P      -0.172000
     13 C14          0.2840     0.3870    -0.0040 ca         1 D0P      -0.082000
     14 C18          4.6620    -1.1680    -0.2570 c3         1 D0P      -0.038400
     15 F08         -1.6810    -1.1110    -1.6780 f          1 D0P      -0.165000
     16 F11         -5.9440    -1.5850     0.3480 f          1 D0P      -0.172000
     17 O01          2.7150     3.1590    -0.0630 oh         1 D0P      -0.555100
     18 O20          2.3290    -1.8710    -0.1780 o          1 D0P      -0.554100
     19 S19          5.1680    -2.9670    -0.3290 sh         1 D0P      -0.348800
     20 H131        -3.0360     1.6000     1.7490 ha         1 D0P       0.123000
     21 H031         0.3340     4.2790     0.0890 ha         1 D0P       0.116000
     22 H041        -1.8210     3.0790     0.1650 ha         1 D0P       0.119000
     23 H091        -4.0220    -2.1870    -1.3370 ha         1 D0P       0.152000
     24 H121        -5.2240     0.4300     1.8670 ha         1 D0P       0.137000
     25 H141         0.2440    -0.6960    -0.0090 ha         1 D0P       0.160000
     26 H182         5.0380    -0.6550    -1.1510 h1         1 D0P       0.076700
     27 H181         5.1160    -0.7030     0.6260 h1         1 D0P       0.076700
     28 H161         3.5690     1.0310    -0.1430 hn         1 D0P       0.167000
     29 H011         2.5230     4.1220    -0.0300 ho         1 D0P       0.475000
     30 H1           6.5050    -2.7510    -0.3820 hs         1 D0P       0.183800
     31 N16          2.7820     0.3950    -0.1270 ns         1 D0P      -0.139000
@<TRIPOS>BOND
     1     1    11 ar  
     2     1    12 ar  
     3     1    16 1   
     4     2     9 ar  
     5     2    12 ar  
     6     2    20 1   
     7     3     5 ar  
     8     3    13 ar  
     9     3    31 1   
    10     4    14 1   
    11     4    18 2   
    12     4    31 1   
    13     5     6 ar  
    14     5    17 1   
    15     6     7 ar  
    16     6    21 1   
    17     7     8 ar  
    18     7    22 1   
    19     8     9 1   
    20     8    13 ar  
    21     9    10 ar  
    22    10    11 ar  
    23    10    15 1   
    24    11    23 1   
    25    12    24 1   
    26    13    25 1   
    27    14    19 1   
    28    14    26 1   
    29    14    27 1   
    30    17    29 1   
    31    19    30 1   
    32    28    31 1   
@<TRIPOS>SUBSTRUCTURE
     1 D0P         1 TEMP              0 ****  ****    0 ROOT
