@<TRIPOS>MOLECULE
D0P
   31    32     1     0     0
SMALL
bcc


@<TRIPOS>ATOM
      1 C10         -4.6320    -0.9700     0.2610 ca         1 D0P       0.166900
      2 C13         -3.1390     0.6730     1.1050 ca         1 D0P      -0.070000
      3 C15          1.5140     1.0820    -0.0610 ca         1 D0P       0.048600
      4 C17          3.0770    -0.8480    -0.1080 c          1 D0P       0.685100
      5 C02          1.5070     2.4870    -0.0260 ca         1 D0P       0.091100
      6 C03          0.3070     3.1710     0.0510 ca         1 D0P      -0.196000
      7 C04         -0.8950     2.4800     0.0920 ca         1 D0P      -0.100000
      8 C05         -0.9070     1.0910     0.0570 cp         1 D0P      -0.040000
      9 C06         -2.1910     0.3640     0.1300 cp         1 D0P      -0.088000
     10 C07         -2.5350    -0.6360    -0.7730 ca         1 D0P       0.178900
     11 C09         -3.7360    -1.3180    -0.7310 ca         1 D0P      -0.218000
     12 C12         -4.3590     0.0200     1.1840 ca         1 D0P      -0.190000
     13 C14          0.3040     0.4010    -0.0190 ca         1 D0P      -0.100000
     14 C18          4.5590    -1.1180    -0.2650 c3         1 D0P      -0.086300
     15 F08         -1.6770    -0.9550    -1.7510 f          1 D0P      -0.129900
     16 F11         -5.8010    -1.6200     0.3220 f          1 D0P      -0.136900
     17 O01          2.7070     3.1000    -0.0730 oh         1 D0P      -0.516100
     18 O20          2.2740    -1.7510     0.0320 o          1 D0P      -0.554100
     19 S19          4.8250    -2.9050    -0.1130 sh         1 D0P      -0.300900
     20 H131        -2.9110     1.4400     1.8330 ha         1 D0P       0.141000
     21 H031         0.3070     4.2550     0.0740 ha         1 D0P       0.134000
     22 H041        -1.8220     3.0360     0.1400 ha         1 D0P       0.137000
     23 H091        -3.9640    -2.0860    -1.4580 ha         1 D0P       0.170000
     24 H121        -5.0780     0.2730     1.9520 ha         1 D0P       0.155000
     25 H141         0.3050    -0.6760    -0.0210 ha         1 D0P       0.178000
     26 H182         4.8970    -0.7600    -1.2400 h1         1 D0P       0.076700
     27 H181         5.1220    -0.5780     0.4980 h1         1 D0P       0.076700
     28 H161         3.5480     1.1030    -0.2510 hn         1 D0P       0.333500
     29 H011         2.6040     4.0590    -0.0770 ho         1 D0P       0.436000
     30 H1           6.1540    -2.8540    -0.2660 hs         1 D0P       0.183800
     31 N16          2.7700     0.4690    -0.1450 ns         1 D0P      -0.465100
@<TRIPOS>BOND
     1     1    11 ar  
     2     1    12 ar  
     3     1    16 1   
     4     2     9 ar  
     5     2    12 ar  
     6     2    20 1   
     7     3     5 ar  
     8     3    13 ar  
     9     3    31 1   
    10     4    14 1   
    11     4    18 2   
    12     4    31 1   
    13     5     6 ar  
    14     5    17 1   
    15     6     7 ar  
    16     6    21 1   
    17     7     8 ar  
    18     7    22 1   
    19     8     9 1   
    20     8    13 ar  
    21     9    10 ar  
    22    10    11 ar  
    23    10    15 1   
    24    11    23 1   
    25    12    24 1   
    26    13    25 1   
    27    14    19 1   
    28    14    26 1   
    29    14    27 1   
    30    17    29 1   
    31    19    30 1   
    32    28    31 1   
@<TRIPOS>SUBSTRUCTURE
     1 D0P         1 TEMP              0 ****  ****    0 ROOT
