@<TRIPOS>MOLECULE
D0Q
   29    30     1     0     0
SMALL
No Charge or Current Charge


@<TRIPOS>ATOM
      1 C4           1.1780    -0.2750     0.2390 ca         1 D0Q      -0.097800
      2 C5           2.1140    -1.2000    -0.1250 ca         1 D0Q      -0.055200
      3 C6           3.4520    -0.8480    -0.3370 ca         1 D0Q      -0.141000
      4 C11         -2.3250    -0.0810    -0.4480 c3         1 D0Q       0.029500
      5 C7           3.8130     0.5060    -0.1630 ca         1 D0Q      -0.098000
      6 C8           0.1400    -2.3390     0.0810 cc         1 D0Q      -0.186100
      7 C9          -0.0720    -0.9950     0.3660 cd         1 D0Q      -0.096400
      8 C10         -1.4020    -0.3930     0.7600 c3         1 D0Q      -0.046200
      9 C12         -3.7680     0.3480     0.0490 c          1 D0Q       0.723000
     10 N1           1.5140    -2.4420    -0.2260 na         1 D0Q      -0.234700
     11 N2          -1.6320     0.8550    -1.4070 n8         1 D0Q      -0.987200
     12 C3           1.5010     1.0770     0.4220 ca         1 D0Q      -0.043000
     13 C2           2.8440     1.4710     0.2140 ca         1 D0Q      -0.129300
     14 O1          -3.8970     1.4320     0.6070 o          1 D0Q      -0.732000
     15 O2          -4.7140    -0.3870    -0.2050 o          1 D0Q      -0.732000
     16 H61          4.1910    -1.5920    -0.6250 ha         1 D0Q       0.099000
     17 H111        -2.4590    -1.0290    -0.9880 h1         1 D0Q       0.041700
     18 H71          4.8470     0.8060    -0.3190 ha         1 D0Q       0.094000
     19 H81         -0.5410    -3.1850     0.0710 h4         1 D0Q       0.211000
     20 H102        -1.2480     0.5210     1.3470 hc         1 D0Q       0.052700
     21 H101        -1.9270    -1.0890     1.4260 hc         1 D0Q       0.052700
     22 H1           1.9970    -3.2980    -0.4820 hn         1 D0Q       0.335000
     23 H2          -1.5860     1.7850    -0.9750 hn         1 D0Q       0.378000
     24 H21         -0.6480     0.5680    -1.4700 hn         1 D0Q       0.378000
     25 H31          0.7430     1.7990     0.7160 ha         1 D0Q       0.125000
     26 H11          3.5870     3.1060     1.4300 hc         1 D0Q       0.031367
     27 H13          4.0690     3.2020    -0.2730 hc         1 D0Q       0.031367
     28 H12          2.4130     3.6040     0.2000 hc         1 D0Q       0.031367
     29 C1           3.2500     2.9250     0.4020 c3         1 D0Q      -0.033800
@<TRIPOS>BOND
     1     1     2 ar  
     2     1     7 1   
     3     1    12 ar  
     4     2     3 ar  
     5     2    10 1   
     6     3     5 ar  
     7     3    16 1   
     8     4     8 1   
     9     4     9 1   
    10     4    11 1   
    11     4    17 1   
    12     5    13 ar  
    13     5    18 1   
    14     6     7 2   
    15     6    10 1   
    16     6    19 1   
    17     7     8 1   
    18     8    20 1   
    19     8    21 1   
    20     9    14 1   
    21     9    15 1   
    22    10    22 1   
    23    11    23 1   
    24    11    24 1   
    25    12    13 ar  
    26    12    25 1   
    27    13    29 1   
    28    26    29 1   
    29    27    29 1   
    30    28    29 1   
@<TRIPOS>SUBSTRUCTURE
     1 D0Q         1 TEMP              0 ****  ****    0 ROOT
