@<TRIPOS>MOLECULE
D0Q
   29    30     1     0     0
SMALL
bcc


@<TRIPOS>ATOM
      1 C4           1.1210    -0.3200     0.2400 ca         1 D0Q      -0.097800
      2 C5           2.1320    -1.2390    -0.1130 ca         1 D0Q      -0.055200
      3 C6           3.4510    -0.8360    -0.3190 ca         1 D0Q      -0.159000
      4 C11         -2.2590    -0.0160    -0.4960 c3         1 D0Q       0.029500
      5 C7           3.7430     0.5040    -0.1610 ca         1 D0Q      -0.116000
      6 C8           0.2230    -2.3630     0.1050 cc         1 D0Q      -0.136100
      7 C9          -0.1010    -1.0610     0.3770 cd         1 D0Q      -0.096400
      8 C10         -1.4520    -0.5280     0.7220 c3         1 D0Q      -0.046200
      9 C12         -3.6140     0.5100     0.0220 c          1 D0Q       0.933600
     10 N1           1.5530    -2.4710    -0.1910 na         1 D0Q      -0.184400
     11 N2          -1.5810     0.9810    -1.3030 n8         1 D0Q      -0.876800
     12 C3           1.4560     1.0330     0.3910 ca         1 D0Q      -0.061000
     13 C2           2.7600     1.4510     0.1950 ca         1 D0Q      -0.129300
     14 O1          -3.7710     1.7460     0.0660 o          1 D0Q      -0.837300
     15 O2          -4.4280    -0.3560     0.4010 o          1 D0Q      -0.837300
     16 H61          4.2220    -1.5450    -0.5930 ha         1 D0Q       0.117000
     17 H111        -2.4520    -0.8860    -1.1340 h1         1 D0Q       0.041700
     18 H71          4.7610     0.8400    -0.3210 ha         1 D0Q       0.112000
     19 H81         -0.4100    -3.2370     0.1070 h4         1 D0Q       0.161000
     20 H102        -1.3490     0.2900     1.4440 hc         1 D0Q       0.052700
     21 H101        -2.0370    -1.3060     1.2170 hc         1 D0Q       0.052700
     22 H1           2.0260    -3.3310    -0.4140 hn         1 D0Q       0.284700
     23 H2          -1.5020     1.8390    -0.7710 hn         1 D0Q       0.322800
     24 H21         -0.6390     0.6750    -1.5110 hn         1 D0Q       0.322800
     25 H31          0.6910     1.7560     0.6550 ha         1 D0Q       0.143000
     26 H11          3.5990     3.0640     1.3570 hc         1 D0Q       0.031367
     27 H13          3.8700     3.2140    -0.3690 hc         1 D0Q       0.031367
     28 H12          2.2770     3.5500     0.3050 hc         1 D0Q       0.031367
     29 C1           3.1440     2.8930     0.3780 c3         1 D0Q      -0.033800
@<TRIPOS>BOND
     1     1     2 ar  
     2     1     7 1   
     3     1    12 ar  
     4     2     3 ar  
     5     2    10 1   
     6     3     5 ar  
     7     3    16 1   
     8     4     8 1   
     9     4     9 1   
    10     4    11 1   
    11     4    17 1   
    12     5    13 ar  
    13     5    18 1   
    14     6     7 2   
    15     6    10 1   
    16     6    19 1   
    17     7     8 1   
    18     8    20 1   
    19     8    21 1   
    20     9    14 1   
    21     9    15 1   
    22    10    22 1   
    23    11    23 1   
    24    11    24 1   
    25    12    13 ar  
    26    12    25 1   
    27    13    29 1   
    28    26    29 1   
    29    27    29 1   
    30    28    29 1   
@<TRIPOS>SUBSTRUCTURE
     1 D0Q         1 TEMP              0 ****  ****    0 ROOT
