@<TRIPOS>MOLECULE
D0R
   86    88     1     0     0
SMALL
No Charge or Current Charge


@<TRIPOS>ATOM
      1 C21          2.8550     2.0780    -0.3240 c          1 D0R       0.670100
      2 N74          4.0020     1.9550    -1.1320 n          1 D0R      -0.425800
      3 C75          5.3630     2.0240    -0.5340 c3         1 D0R       0.087700
      4 O76          2.9140     2.2840     0.8770 o          1 D0R      -0.646100
      5 C77          5.9140     0.6560    -0.1980 cc         1 D0R       0.269300
      6 C80          6.3710    -0.2580    -1.1180 cd         1 D0R      -0.264000
      7 S81          6.8930    -1.7380    -0.3370 ss         1 D0R      -0.055400
      8 C82          6.4570    -0.9780     1.1900 cd         1 D0R       0.448700
      9 N83          5.9700     0.2530     1.1140 nc         1 D0R      -0.628000
     10 C85          6.5770    -1.6980     2.5160 c3         1 D0R      -0.102000
     11 C86          5.5710    -2.8690     2.6190 c3         1 D0R      -0.089600
     12 C90          8.0250    -2.1650     2.7930 c3         1 D0R      -0.089600
     13 C95          3.9120     1.7060    -2.5910 c3         1 D0R       0.081300
     14 N20          1.6560     1.9500    -0.9810 ns         1 D0R      -0.519900
     15 C19          0.3190     1.9980    -0.3480 c3         1 D0R       0.053700
     16 C18         -0.5160     0.8040    -0.8970 c          1 D0R       0.596100
     17 O61         -0.4990     0.4770    -2.0790 o          1 D0R      -0.613100
     18 C62         -0.3650     3.3790    -0.5970 c3         1 D0R      -0.071700
     19 C64         -1.8110     3.4340    -0.0500 c3         1 D0R      -0.091100
     20 C68          0.4660     4.5620    -0.0380 c3         1 D0R      -0.091100
     21 N11         -5.9670    -0.3930     2.0790 n8         1 D0R      -1.008200
     22 C12         -5.7490    -0.5030     0.6070 c3         1 D0R       0.134500
     23 C13         -4.2750    -0.1330     0.2450 c3         1 D0R       0.185300
     24 C14         -3.2750    -1.2860     0.5350 c3         1 D0R      -0.116400
     25 C15         -1.9070    -1.1770    -0.1890 c3         1 D0R       0.110700
     26 C28         -8.2290     0.0190     0.1750 ca         1 D0R      -0.086300
     27 C31         -9.0300     0.8560     0.9770 ca         1 D0R      -0.111500
     28 C32        -10.3640     0.5080     1.2540 ca         1 D0R      -0.107500
     29 C33        -10.9060    -0.6770     0.7290 ca         1 D0R      -0.110000
     30 C34        -10.1130    -1.5150    -0.0730 ca         1 D0R      -0.107500
     31 C35         -8.7790    -1.1670    -0.3490 ca         1 D0R      -0.111500
     32 O41         -3.9640     0.9700     1.0940 oh         1 D0R      -0.654000
     33 C44         -0.9650    -2.3500     0.1970 c3         1 D0R      -0.052100
     34 C45          0.4400    -2.2310    -0.3900 ca         1 D0R      -0.085300
     35 C48          1.4800    -1.6560     0.3680 ca         1 D0R      -0.105500
     36 C49          2.7650    -1.5160    -0.1800 ca         1 D0R      -0.107500
     37 C50          3.0230    -1.9560    -1.4890 ca         1 D0R      -0.117000
     38 C51          1.9930    -2.5360    -2.2490 ca         1 D0R      -0.107500
     39 C52          0.7050    -2.6730    -1.7010 ca         1 D0R      -0.105500
     40 N58         -1.2530     0.1140     0.0470 ns         1 D0R      -0.483900
     41 H75          6.0440     2.5150    -1.2400 h1         1 D0R       0.069200
     42 H75A         5.3440     2.6430     0.3720 h1         1 D0R       0.069200
     43 H80          6.4170    -0.1520    -2.1940 h4         1 D0R       0.158000
     44 H85          6.3180    -0.9880     3.3110 hc         1 D0R       0.081700
     45 H86          5.7820    -3.6380     1.8660 hc         1 D0R       0.041533
     46 H86A         5.6200    -3.3370     3.6100 hc         1 D0R       0.041533
     47 H86B         4.5450    -2.5110     2.4650 hc         1 D0R       0.041533
     48 H90          8.7200    -1.3180     2.7400 hc         1 D0R       0.041533
     49 H90A         8.1050    -2.6060     3.7940 hc         1 D0R       0.041533
     50 H90B         8.3450    -2.9180     2.0630 hc         1 D0R       0.041533
     51 H95          3.3460     2.5130    -3.0730 h1         1 D0R       0.039700
     52 H95A         4.9140     1.6680    -3.0370 h1         1 D0R       0.039700
     53 H95B         3.4100     0.7470    -2.7730 h1         1 D0R       0.039700
     54 HN20         1.7050     1.7400    -1.9680 hn         1 D0R       0.329500
     55 H19          0.4290     1.8450     0.7330 h1         1 D0R       0.082700
     56 H62         -0.4320     3.5210    -1.6830 hc         1 D0R       0.061700
     57 H64         -1.8320     3.2200     1.0250 hc         1 D0R       0.038700
     58 H64A        -2.2500     4.4270    -0.2090 hc         1 D0R       0.038700
     59 H64B        -2.4540     2.7100    -0.5630 hc         1 D0R       0.038700
     60 H68          1.4480     4.6220    -0.5210 hc         1 D0R       0.038700
     61 H68A        -0.0460     5.5150    -0.2170 hc         1 D0R       0.038700
     62 H68B         0.6180     4.4540     1.0430 hc         1 D0R       0.038700
     63 HN11        -6.9810    -0.4050     2.2490 hn         1 D0R       0.400000
     64 H12         -5.9460    -1.5410     0.3010 h1         1 D0R       0.057700
     65 H13         -4.2130     0.1390    -0.8180 h1         1 D0R       0.071700
     66 H14         -3.1160    -1.3660     1.6170 hc         1 D0R       0.056700
     67 H14A        -3.7350    -2.2320     0.2240 hc         1 D0R       0.056700
     68 H15         -2.1060    -1.2590    -1.2670 h1         1 D0R       0.086700
     69 H31         -8.6200     1.7760     1.3880 ha         1 D0R       0.110500
     70 H32        -10.9770     1.1580     1.8740 ha         1 D0R       0.113000
     71 H33        -11.9380    -0.9460     0.9430 ha         1 D0R       0.114000
     72 H34        -10.5310    -2.4330    -0.4800 ha         1 D0R       0.113000
     73 H35         -8.1730    -1.8210    -0.9730 ha         1 D0R       0.110500
     74 HO41        -4.6470     0.8360     1.8020 ho         1 D0R       0.443000
     75 H44         -0.8990    -2.4070     1.2900 hc         1 D0R       0.050200
     76 H44A        -1.4240    -3.2930    -0.1240 hc         1 D0R       0.050200
     77 H48          1.2890    -1.3050     1.3800 ha         1 D0R       0.108000
     78 H49          3.5560    -1.0620     0.4090 ha         1 D0R       0.125000
     79 H50          4.0170    -1.8460    -1.9150 ha         1 D0R       0.110000
     80 H51          2.1910    -2.8750    -3.2630 ha         1 D0R       0.125000
     81 H52         -0.0900    -3.1130    -2.2990 ha         1 D0R       0.108000
     82 HN58        -1.2670     0.4890     0.9870 hn         1 D0R       0.309500
     83 HN1A        -5.6460    -1.2580     2.5310 hn         1 D0R       0.400000
     84 C26         -6.7790     0.3920    -0.1280 c3         1 D0R      -0.066100
     85 H26         -6.5940     1.4430     0.1260 hc         1 D0R       0.061700
     86 H26A        -6.6060     0.3120    -1.2080 hc         1 D0R       0.061700
@<TRIPOS>BOND
     1     1     2 1   
     2     1     4 2   
     3     1    14 1   
     4     2     3 1   
     5     2    13 1   
     6     3     5 1   
     7     3    41 1   
     8     3    42 1   
     9     5     6 2   
    10     5     9 1   
    11     6     7 1   
    12     6    43 1   
    13     7     8 1   
    14     8     9 2   
    15     8    10 1   
    16    10    11 1   
    17    10    12 1   
    18    10    44 1   
    19    11    45 1   
    20    11    46 1   
    21    11    47 1   
    22    12    48 1   
    23    12    49 1   
    24    12    50 1   
    25    13    51 1   
    26    13    52 1   
    27    13    53 1   
    28    14    15 1   
    29    14    54 1   
    30    15    16 1   
    31    15    18 1   
    32    15    55 1   
    33    16    17 2   
    34    16    40 1   
    35    18    19 1   
    36    18    20 1   
    37    18    56 1   
    38    19    57 1   
    39    19    58 1   
    40    19    59 1   
    41    20    60 1   
    42    20    61 1   
    43    20    62 1   
    44    21    22 1   
    45    21    63 1   
    46    21    83 1   
    47    22    23 1   
    48    22    64 1   
    49    22    84 1   
    50    23    24 1   
    51    23    32 1   
    52    23    65 1   
    53    24    25 1   
    54    24    66 1   
    55    24    67 1   
    56    25    33 1   
    57    25    40 1   
    58    25    68 1   
    59    26    27 ar  
    60    26    31 ar  
    61    26    84 1   
    62    27    28 ar  
    63    27    69 1   
    64    28    29 ar  
    65    28    70 1   
    66    29    30 ar  
    67    29    71 1   
    68    30    31 ar  
    69    30    72 1   
    70    31    73 1   
    71    32    74 1   
    72    33    34 1   
    73    33    75 1   
    74    33    76 1   
    75    34    35 ar  
    76    34    39 ar  
    77    35    36 ar  
    78    35    77 1   
    79    36    37 ar  
    80    36    78 1   
    81    37    38 ar  
    82    37    79 1   
    83    38    39 ar  
    84    38    80 1   
    85    39    81 1   
    86    40    82 1   
    87    84    85 1   
    88    84    86 1   
@<TRIPOS>SUBSTRUCTURE
     1 D0R         1 TEMP              0 ****  ****    0 ROOT
