@<TRIPOS>MOLECULE
D0R
   86    88     1     0     0
SMALL
bcc


@<TRIPOS>ATOM
      1 C21          2.7280     1.9920    -0.2240 c          1 D0R       0.804100
      2 N74          3.7890     1.6630    -1.0200 n          1 D0R      -0.492800
      3 C75          5.1400     1.9530    -0.5840 c3         1 D0R       0.087700
      4 O76          2.8610     2.3150     0.9540 o          1 D0R      -0.646100
      5 C77          5.9520     0.7170    -0.3450 cc         1 D0R       0.334600
      6 C80          6.9010     0.2300    -1.1850 cd         1 D0R      -0.202400
      7 S81          7.5630    -1.2190    -0.5500 ss         1 D0R      -0.200300
      8 C82          6.5130    -1.0730     0.8250 cd         1 D0R       0.448700
      9 N83          5.7500    -0.0300     0.7870 nc         1 D0R      -0.628000
     10 C85          6.5200    -2.0930     1.9220 c3         1 D0R      -0.102000
     11 C86          5.9620    -3.4290     1.4310 c3         1 D0R      -0.089600
     12 C90          7.9150    -2.2670     2.5200 c3         1 D0R      -0.089600
     13 C95          3.6260     1.1820    -2.3720 c3         1 D0R       0.081300
     14 N20          1.5160     1.9550    -0.8350 ns         1 D0R      -0.586900
     15 C19          0.2630     2.1880    -0.1580 c3         1 D0R       0.053700
     16 C18         -0.6790     1.0700    -0.6120 c          1 D0R       0.663100
     17 O61         -0.8560     0.8750    -1.8070 o          1 D0R      -0.613100
     18 C62         -0.3270     3.5740    -0.4710 c3         1 D0R      -0.071700
     19 C64         -1.6430     3.7770     0.2720 c3         1 D0R      -0.091100
     20 C68          0.6600     4.6820    -0.1270 c3         1 D0R      -0.091100
     21 N11         -5.9750    -0.1450     1.8610 n8         1 D0R      -0.897800
     22 C12         -5.8050    -0.4900     0.4590 c3         1 D0R       0.134500
     23 C13         -4.3860    -0.1280     0.0010 c3         1 D0R       0.162100
     24 C14         -3.3360    -0.9570     0.7320 c3         1 D0R      -0.116400
     25 C15         -1.9310    -0.9150     0.1330 c3         1 D0R       0.110700
     26 C28         -8.2530    -0.2840    -0.1230 ca         1 D0R      -0.086300
     27 C31         -9.0670     0.5020     0.6900 ca         1 D0R      -0.129500
     28 C32        -10.3420     0.0790     1.0470 ca         1 D0R      -0.125500
     29 C33        -10.8240    -1.1430     0.5970 ca         1 D0R      -0.128000
     30 C34        -10.0220    -1.9360    -0.2150 ca         1 D0R      -0.125500
     31 C35         -8.7500    -1.5090    -0.5680 ca         1 D0R      -0.129500
     32 O41         -4.1610     1.2630     0.1100 oh         1 D0R      -0.591800
     33 C44         -1.0830    -2.0690     0.7030 c3         1 D0R      -0.052100
     34 C45          0.3380    -2.0360     0.2230 ca         1 D0R      -0.085300
     35 C48          1.3250    -1.3920     0.9650 ca         1 D0R      -0.123500
     36 C49          2.6280    -1.3040     0.4990 ca         1 D0R      -0.125500
     37 C50          2.9680    -1.8730    -0.7200 ca         1 D0R      -0.135000
     38 C51          1.9970    -2.5250    -1.4690 ca         1 D0R      -0.125500
     39 C52          0.6920    -2.6010    -1.0000 ca         1 D0R      -0.123500
     40 N58         -1.2500     0.3450     0.3580 ns         1 D0R      -0.550900
     41 H75          5.6380     2.5660    -1.3410 h1         1 D0R       0.069200
     42 H75A         5.0970     2.5430     0.3290 h1         1 D0R       0.069200
     43 H80          7.2370     0.6430    -2.1220 h4         1 D0R       0.176000
     44 H85          5.8530    -1.6980     2.6930 hc         1 D0R       0.081700
     45 H86          6.6020    -3.8640     0.6610 hc         1 D0R       0.041533
     46 H86A         5.9070    -4.1400     2.2560 hc         1 D0R       0.041533
     47 H86B         4.9610    -3.3170     1.0160 hc         1 D0R       0.041533
     48 H90          8.3290    -1.3180     2.8610 hc         1 D0R       0.041533
     49 H90A         7.8760    -2.9440     3.3730 hc         1 D0R       0.041533
     50 H90B         8.6070    -2.6960     1.7920 hc         1 D0R       0.041533
     51 H95          3.3550     1.9760    -3.0760 h1         1 D0R       0.039700
     52 H95A         4.5640     0.7490    -2.7120 h1         1 D0R       0.039700
     53 H95B         2.8820     0.3850    -2.4250 h1         1 D0R       0.039700
     54 HN20         1.4460     1.7670    -1.8210 hn         1 D0R       0.329500
     55 H19          0.4450     2.1250     0.9180 h1         1 D0R       0.082700
     56 H62         -0.5260     3.6150    -1.5480 hc         1 D0R       0.061700
     57 H64         -1.4980     3.6950     1.3530 hc         1 D0R       0.038700
     58 H64A        -2.0470     4.7700     0.0700 hc         1 D0R       0.038700
     59 H64B        -2.4000     3.0510    -0.0210 hc         1 D0R       0.038700
     60 H68          1.5720     4.6170    -0.7200 hc         1 D0R       0.038700
     61 H68A         0.2140     5.6580    -0.3220 hc         1 D0R       0.038700
     62 H68B         0.9430     4.6470     0.9270 hc         1 D0R       0.038700
     63 HN11        -6.1730     0.8450     1.9540 hn         1 D0R       0.344800
     64 H12         -5.8970    -1.5790     0.3770 h1         1 D0R       0.057700
     65 H13         -4.3160    -0.3570    -1.0690 h1         1 D0R       0.071700
     66 H14         -3.3030    -0.6770     1.7900 hc         1 D0R       0.056700
     67 H14A        -3.6630    -2.0000     0.7130 hc         1 D0R       0.056700
     68 H15         -2.0020    -1.0450    -0.9480 h1         1 D0R       0.086700
     69 H31         -8.7070     1.4620     1.0400 ha         1 D0R       0.128500
     70 H32        -10.9590     0.7060     1.6790 ha         1 D0R       0.131000
     71 H33        -11.8170    -1.4710     0.8730 ha         1 D0R       0.132000
     72 H34        -10.3890    -2.8880    -0.5770 ha         1 D0R       0.131000
     73 H35         -8.1320    -2.1330    -1.2040 ha         1 D0R       0.128500
     74 HO41        -3.9560     1.4620     1.0290 ho         1 D0R       0.404000
     75 H44         -1.1150    -2.0250     1.7960 hc         1 D0R       0.050200
     76 H44A        -1.5590    -3.0090     0.4130 hc         1 D0R       0.050200
     77 H48          1.0700    -0.9510     1.9220 ha         1 D0R       0.126000
     78 H49          3.3790    -0.7810     1.0750 ha         1 D0R       0.143000
     79 H50          3.9870    -1.8060    -1.0840 ha         1 D0R       0.128000
     80 H51          2.2540    -2.9750    -2.4200 ha         1 D0R       0.143000
     81 H52         -0.0610    -3.1100    -1.5910 ha         1 D0R       0.126000
     82 HN58        -1.0070     0.5660     1.3120 hn         1 D0R       0.309500
     83 HN1A        -6.7840    -0.6200     2.2400 hn         1 D0R       0.344800
     84 C26         -6.8560     0.1400    -0.4740 c3         1 D0R      -0.066100
     85 H26         -6.7690     1.2290    -0.4200 hc         1 D0R       0.061700
     86 H26A        -6.6350    -0.1460    -1.5060 hc         1 D0R       0.061700
@<TRIPOS>BOND
     1     1     2 1   
     2     1     4 2   
     3     1    14 1   
     4     2     3 1   
     5     2    13 1   
     6     3     5 1   
     7     3    41 1   
     8     3    42 1   
     9     5     6 2   
    10     5     9 1   
    11     6     7 1   
    12     6    43 1   
    13     7     8 1   
    14     8     9 2   
    15     8    10 1   
    16    10    11 1   
    17    10    12 1   
    18    10    44 1   
    19    11    45 1   
    20    11    46 1   
    21    11    47 1   
    22    12    48 1   
    23    12    49 1   
    24    12    50 1   
    25    13    51 1   
    26    13    52 1   
    27    13    53 1   
    28    14    15 1   
    29    14    54 1   
    30    15    16 1   
    31    15    18 1   
    32    15    55 1   
    33    16    17 2   
    34    16    40 1   
    35    18    19 1   
    36    18    20 1   
    37    18    56 1   
    38    19    57 1   
    39    19    58 1   
    40    19    59 1   
    41    20    60 1   
    42    20    61 1   
    43    20    62 1   
    44    21    22 1   
    45    21    63 1   
    46    21    83 1   
    47    22    23 1   
    48    22    64 1   
    49    22    84 1   
    50    23    24 1   
    51    23    32 1   
    52    23    65 1   
    53    24    25 1   
    54    24    66 1   
    55    24    67 1   
    56    25    33 1   
    57    25    40 1   
    58    25    68 1   
    59    26    27 ar  
    60    26    31 ar  
    61    26    84 1   
    62    27    28 ar  
    63    27    69 1   
    64    28    29 ar  
    65    28    70 1   
    66    29    30 ar  
    67    29    71 1   
    68    30    31 ar  
    69    30    72 1   
    70    31    73 1   
    71    32    74 1   
    72    33    34 1   
    73    33    75 1   
    74    33    76 1   
    75    34    35 ar  
    76    34    39 ar  
    77    35    36 ar  
    78    35    77 1   
    79    36    37 ar  
    80    36    78 1   
    81    37    38 ar  
    82    37    79 1   
    83    38    39 ar  
    84    38    80 1   
    85    39    81 1   
    86    40    82 1   
    87    84    85 1   
    88    84    86 1   
@<TRIPOS>SUBSTRUCTURE
     1 D0R         1 TEMP              0 ****  ****    0 ROOT
