@<TRIPOS>MOLECULE
D0S
   67    71     1     0     0
SMALL
No Charge or Current Charge


@<TRIPOS>ATOM
      1 C10         36.2990    59.5660    72.0500 cc         1 D0S      -0.311500
      2 N12         32.9130    56.7380    76.6840 nb         1 D0S      -0.745000
      3 C13         32.5540    55.4570    76.5360 ca         1 D0S       0.618900
      4 C15         34.5900    54.8910    75.3310 ca         1 D0S      -0.071600
      5 C17         35.4980    53.9480    74.5660 c          1 D0S       0.605700
      6 C20         35.5910    51.7320    73.3560 c3         1 D0S       0.063000
      7 C21         34.8100    51.5050    72.0190 c3         1 D0S       0.181500
      8 C24         36.7950    60.4570    71.1180 cd         1 D0S      -0.096000
      9 C26         37.0410    58.4630    69.9160 cc         1 D0S      -0.244000
     10 C01         35.7770    61.2680    73.8090 cc         1 D0S      -0.213000
     11 C02         35.7920    59.8780    73.3660 cc         1 D0S       0.495500
     12 C04         34.9310    59.3140    75.3210 cd         1 D0S       0.417500
     13 C06         35.2980    61.6690    75.0540 cd         1 D0S      -0.025000
     14 C07         34.3720    58.5460    76.2890 cc         1 D0S      -0.358400
     15 C08         33.9370    59.4610    77.2780 cc         1 D0S       0.437500
     16 C11         34.0950    57.1280    76.1740 ca         1 D0S       0.498800
     17 C14         33.3430    54.5060    75.8700 ca         1 D0S      -0.219000
     18 C16         34.9560    56.2380    75.5060 ca         1 D0S      -0.165000
     19 C23         35.4120    50.2950    71.2650 c3         1 D0S      -0.087100
     20 C25         37.2120    59.8250    69.9160 cd         1 D0S      -0.143000
     21 C30         35.8620    54.2960    69.5080 c3         1 D0S      -0.092600
     22 C31         32.2680    53.2170    71.9340 c3         1 D0S      -0.092600
     23 C33         30.4510    53.9520    76.8340 cy         1 D0S       0.200300
     24 C34         29.4610    54.6250    77.8530 cy         1 D0S       0.126300
     25 C35         30.2130    55.9720    77.5470 cy         1 D0S       0.200300
     26 N03         35.3580    58.8530    74.0980 nd         1 D0S      -0.676000
     27 N05         34.8640    60.5980    75.8210 na         1 D0S       0.099900
     28 N09         34.2360    60.7400    77.0410 nd         1 D0S      -0.581100
     29 N19         34.9730    52.7090    74.2650 ns         1 D0S      -0.497900
     30 N22         34.6570    52.7030    71.1160 n3         1 D0S      -0.762600
     31 N32         31.3430    55.1210    77.0760 nn         1 D0S      -0.779300
     32 O18         36.6270    54.2710    74.2180 o          1 D0S      -0.600100
     33 S27         36.3470    57.9110    71.4360 ss         1 D0S       0.308000
     34 H1          35.6480    50.7760    73.8920 h1         1 D0S       0.062200
     35 H2          36.6210    52.0310    73.1270 h1         1 D0S       0.062200
     36 H3          33.8100    51.1600    72.3090 h1         1 D0S       0.052700
     37 H4          36.8750    61.5300    71.2500 ha         1 D0S       0.131000
     38 H5          37.2680    57.7420    69.1420 h4         1 D0S       0.153000
     39 H6          33.5130    54.4550    70.7480 h1         1 D0S       0.035950
     40 H7          34.0670    54.3200    72.4030 h1         1 D0S       0.035950
     41 H8          36.1420    62.0390    73.1470 ha         1 D0S       0.144000
     42 H9          35.2350    62.6760    75.4480 h4         1 D0S       0.164000
     43 H10         33.3880    59.2220    78.1800 h4         1 D0S       0.061800
     44 H11         32.9820    53.4870    75.7910 ha         1 D0S       0.123000
     45 H12         35.9060    56.5930    75.1210 ha         1 D0S       0.158000
     46 H13         35.2980    49.3810    71.8600 hc         1 D0S       0.039700
     47 H14         34.8950    50.1400    70.3100 hc         1 D0S       0.039700
     48 H15         36.4810    50.4310    71.0650 hc         1 D0S       0.039700
     49 H16         37.6270    60.3700    69.0730 ha         1 D0S       0.137000
     50 H17         36.4470    53.7960    71.5200 h1         1 D0S       0.035950
     51 H18         36.6370    52.4980    70.3460 h1         1 D0S       0.035950
     52 H19         36.8680    54.5600    69.1600 hc         1 D0S       0.034700
     53 H20         35.3130    53.8590    68.6660 hc         1 D0S       0.034700
     54 H21         35.3640    55.2230    69.8130 hc         1 D0S       0.034700
     55 H22         31.5810    54.0610    72.0690 hc         1 D0S       0.034700
     56 H23         31.8690    52.5760    71.1390 hc         1 D0S       0.034700
     57 H24         32.2840    52.6510    72.8720 hc         1 D0S       0.034700
     58 H25         30.0560    53.8820    75.8130 h1         1 D0S       0.064450
     59 H26         30.8280    52.9780    77.1660 h1         1 D0S       0.064450
     60 H27         29.6260    54.2780    78.8810 h1         1 D0S       0.052700
     61 H28         30.4070    56.5820    78.4370 h1         1 D0S       0.064450
     62 H29         29.7410    56.5770    76.7630 h1         1 D0S       0.064450
     63 H30         34.0350    52.5260    74.5960 hn         1 D0S       0.314500
     64 H32         27.5840    55.0970    78.2110 ho         1 D0S       0.448000
     65 O36         28.0640    54.5660    77.5370 oh         1 D0S      -0.645000
     66 C28         33.6720    53.7380    71.5630 c3         1 D0S       0.180800
     67 C29         35.9570    53.2920    70.6770 c3         1 D0S       0.180800
@<TRIPOS>BOND
     1     1     8 2   
     2     1    11 1   
     3     1    33 1   
     4     2     3 ar  
     5     2    16 ar  
     6     3    17 ar  
     7     3    31 1   
     8     4     5 1   
     9     4    17 ar  
    10     4    18 ar  
    11     5    29 1   
    12     5    32 2   
    13     6     7 1   
    14     6    29 1   
    15     6    34 1   
    16     6    35 1   
    17     7    19 1   
    18     7    30 1   
    19     7    36 1   
    20     8    20 1   
    21     8    37 1   
    22     9    20 2   
    23     9    33 1   
    24     9    38 1   
    25    10    11 1   
    26    10    13 2   
    27    10    41 1   
    28    11    26 2   
    29    12    14 2   
    30    12    26 1   
    31    12    27 1   
    32    13    27 1   
    33    13    42 1   
    34    14    15 1   
    35    14    16 1   
    36    15    28 2   
    37    15    43 1   
    38    16    18 ar  
    39    17    44 1   
    40    18    45 1   
    41    19    46 1   
    42    19    47 1   
    43    19    48 1   
    44    20    49 1   
    45    21    52 1   
    46    21    53 1   
    47    21    54 1   
    48    21    67 1   
    49    22    55 1   
    50    22    56 1   
    51    22    57 1   
    52    22    66 1   
    53    23    24 1   
    54    23    31 1   
    55    23    58 1   
    56    23    59 1   
    57    24    25 1   
    58    24    60 1   
    59    24    65 1   
    60    25    31 1   
    61    25    61 1   
    62    25    62 1   
    63    27    28 1   
    64    29    63 1   
    65    30    66 1   
    66    30    67 1   
    67    39    66 1   
    68    40    66 1   
    69    50    67 1   
    70    51    67 1   
    71    64    65 1   
@<TRIPOS>SUBSTRUCTURE
     1 D0S         1 TEMP              0 ****  ****    0 ROOT
