@<TRIPOS>MOLECULE
D0S
   67    71     1     0     0
SMALL
abcg2


@<TRIPOS>ATOM
      1 C10         36.6360    59.2490    71.9920 cc         1 D0S      -0.311500
      2 N12         32.3490    56.5940    76.6030 nb         1 D0S      -0.745000
      3 C13         32.1490    55.2790    76.7550 ca         1 D0S       0.618900
      4 C15         33.9630    54.7540    75.2850 ca         1 D0S      -0.071600
      5 C17         34.8670    53.8080    74.5500 c          1 D0S       0.605700
      6 C20         34.8980    51.8470    73.0430 c3         1 D0S       0.063000
      7 C21         34.4890    52.0100    71.5630 c3         1 D0S       0.181500
      8 C24         37.4360    59.9850    71.1480 cd         1 D0S      -0.096000
      9 C26         37.8880    57.8480    70.3790 cc         1 D0S      -0.244000
     10 C01         35.5680    61.0960    73.3140 cc         1 D0S      -0.213000
     11 C02         35.7570    59.7050    73.0540 cc         1 D0S       0.495500
     12 C04         34.3030    59.1560    74.7380 cd         1 D0S       0.417500
     13 C06         34.7140    61.4740    74.3020 cd         1 D0S      -0.025000
     14 C07         33.4940    58.4530    75.6450 cc         1 D0S      -0.358400
     15 C08         32.8480    59.4640    76.3830 cc         1 D0S       0.437500
     16 C11         33.3420    57.0110    75.7950 ca         1 D0S       0.498800
     17 C14         32.9330    54.3090    76.0930 ca         1 D0S      -0.219000
     18 C16         34.1870    56.1210    75.1330 ca         1 D0S      -0.165000
     19 C23         34.9770    50.7940    70.7710 c3         1 D0S      -0.087100
     20 C25         38.1530    59.1830    70.2270 cd         1 D0S      -0.143000
     21 C30         36.8600    54.1860    69.6840 c3         1 D0S      -0.092600
     22 C31         32.6070    54.2960    70.9660 c3         1 D0S      -0.092600
     23 C33         30.9360    53.6130    78.2430 cy         1 D0S       0.200300
     24 C34         30.1090    54.3430    79.3200 cy         1 D0S       0.126300
     25 C35         30.5000    55.6800    78.6360 cy         1 D0S       0.200300
     26 N03         35.1340    58.7740    73.7630 nd         1 D0S      -0.676000
     27 N05         34.0820    60.5070    75.0090 na         1 D0S       0.099900
     28 N09         33.1950    60.6980    76.0140 nd         1 D0S      -0.581100
     29 N19         34.2430    52.7960    73.9250 ns         1 D0S      -0.497900
     30 N22         34.9000    53.2570    70.9070 n3         1 D0S      -0.762600
     31 N32         31.1260    54.9000    77.5640 nn         1 D0S      -0.779300
     32 O18         36.0850    53.9930    74.5150 o          1 D0S      -0.600100
     33 S27         36.7670    57.5520    71.6450 ss         1 D0S       0.308000
     34 H1          34.6390    50.8360    73.3660 h1         1 D0S       0.062200
     35 H2          35.9720    51.9710    73.1640 h1         1 D0S       0.062200
     36 H3          33.3990    51.9890    71.5320 h1         1 D0S       0.052700
     37 H4          37.5110    61.0620    71.1850 ha         1 D0S       0.131000
     38 H5          38.2910    57.0230    69.8150 h4         1 D0S       0.153000
     39 H6          34.4650    55.2290    70.4980 h1         1 D0S       0.035950
     40 H7          34.2880    54.8490    72.1910 h1         1 D0S       0.035950
     41 H8          36.0790    61.8490    72.7370 ha         1 D0S       0.144000
     42 H9          34.4940    62.4960    74.5710 h4         1 D0S       0.164000
     43 H10         32.1380    59.3290    77.1830 h4         1 D0S       0.061800
     44 H11         32.7380    53.2560    76.2340 ha         1 D0S       0.123000
     45 H12         34.9850    56.4830    74.5050 ha         1 D0S       0.158000
     46 H13         34.5540    49.8770    71.1850 hc         1 D0S       0.039700
     47 H14         34.6690    50.8810    69.7290 hc         1 D0S       0.039700
     48 H15         36.0650    50.6990    70.7990 hc         1 D0S       0.039700
     49 H16         38.8330    59.5760    69.4850 ha         1 D0S       0.137000
     50 H17         36.5620    54.1980    71.8240 h1         1 D0S       0.035950
     51 H18         36.8760    52.6190    71.1360 h1         1 D0S       0.035950
     52 H19         37.9220    54.4210    69.7860 hc         1 D0S       0.034700
     53 H20         36.7350    53.5060    68.8400 hc         1 D0S       0.034700
     54 H21         36.3380    55.1160    69.4500 hc         1 D0S       0.034700
     55 H22         32.1280    55.2760    71.0160 hc         1 D0S       0.034700
     56 H23         32.3980    53.8620    69.9860 hc         1 D0S       0.034700
     57 H24         32.1410    53.6660    71.7260 hc         1 D0S       0.034700
     58 H25         30.3770    52.8740    77.6660 h1         1 D0S       0.064450
     59 H26         31.8660    53.1690    78.6080 h1         1 D0S       0.064450
     60 H27         30.4780    54.2300    80.3400 h1         1 D0S       0.052700
     61 H28         31.2110    56.2900    79.1980 h1         1 D0S       0.064450
     62 H29         29.6570    56.2960    78.3180 h1         1 D0S       0.064450
     63 H30         33.2350    52.7780    73.9580 hn         1 D0S       0.314500
     64 H32         28.2510    54.5040    79.8900 ho         1 D0S       0.448000
     65 O36         28.7400    53.9900    79.2340 oh         1 D0S      -0.645000
     66 C28         34.1050    54.4580    71.1810 c3         1 D0S       0.180800
     67 C29         36.3340    53.5490    70.9670 c3         1 D0S       0.180800
@<TRIPOS>BOND
     1     1     8 2   
     2     1    11 1   
     3     1    33 1   
     4     2     3 ar  
     5     2    16 ar  
     6     3    17 ar  
     7     3    31 1   
     8     4     5 1   
     9     4    17 ar  
    10     4    18 ar  
    11     5    29 1   
    12     5    32 2   
    13     6     7 1   
    14     6    29 1   
    15     6    34 1   
    16     6    35 1   
    17     7    19 1   
    18     7    30 1   
    19     7    36 1   
    20     8    20 1   
    21     8    37 1   
    22     9    20 2   
    23     9    33 1   
    24     9    38 1   
    25    10    11 1   
    26    10    13 2   
    27    10    41 1   
    28    11    26 2   
    29    12    14 2   
    30    12    26 1   
    31    12    27 1   
    32    13    27 1   
    33    13    42 1   
    34    14    15 1   
    35    14    16 1   
    36    15    28 2   
    37    15    43 1   
    38    16    18 ar  
    39    17    44 1   
    40    18    45 1   
    41    19    46 1   
    42    19    47 1   
    43    19    48 1   
    44    20    49 1   
    45    21    52 1   
    46    21    53 1   
    47    21    54 1   
    48    21    67 1   
    49    22    55 1   
    50    22    56 1   
    51    22    57 1   
    52    22    66 1   
    53    23    24 1   
    54    23    31 1   
    55    23    58 1   
    56    23    59 1   
    57    24    25 1   
    58    24    60 1   
    59    24    65 1   
    60    25    31 1   
    61    25    61 1   
    62    25    62 1   
    63    27    28 1   
    64    29    63 1   
    65    30    66 1   
    66    30    67 1   
    67    39    66 1   
    68    40    66 1   
    69    50    67 1   
    70    51    67 1   
    71    64    65 1   
@<TRIPOS>SUBSTRUCTURE
     1 D0S         1 TEMP              0 ****  ****    0 ROOT
