@<TRIPOS>MOLECULE
D0T
   66    69     1     0     0
SMALL
abcg2


@<TRIPOS>ATOM
      1 C1          -5.5870     2.7800    -2.2040 ca         1 D0T      -0.132000
      2 C2          -4.8960     3.9800    -2.1570 ca         1 D0T      -0.116000
      3 C3          -5.2920     1.7860    -1.2810 ca         1 D0T      -0.097000
      4 C4          -3.9070     4.1670    -1.2000 ca         1 D0T      -0.124000
      5 C5           2.1380     2.6750     1.0660 ca         1 D0T      -0.133000
      6 C6           3.3540     2.0790     0.7740 ca         1 D0T      -0.150000
      7 C7          -4.3140     1.9800    -0.3090 ca         1 D0T      -0.100600
      8 C8           1.0080     0.5610     0.8790 ca         1 D0T      -0.090600
      9 C9          -3.5980     3.1820    -0.2690 ca         1 D0T      -0.017300
     10 C10          0.9600     1.9350     1.1210 ca         1 D0T      -0.098300
     11 C11          3.4080     0.7140     0.5330 ca         1 D0T       0.059100
     12 C12          2.2320    -0.0380     0.5920 ca         1 D0T       0.060100
     13 C13         -4.1580     0.9280     0.7480 c          1 D0T       0.624700
     14 C15          8.3660    -1.6260    -1.1440 c          1 D0T       0.717000
     15 C16         -4.3890    -5.0660    -1.0870 ca         1 D0T      -0.127000
     16 C17         -5.4330    -4.5370    -0.3400 ca         1 D0T      -0.131500
     17 C18         -3.1560    -4.4250    -1.0970 ca         1 D0T      -0.131500
     18 C19         -5.2420    -3.3720     0.3930 ca         1 D0T      -0.093000
     19 C20         -2.9660    -3.2630    -0.3600 ca         1 D0T      -0.093000
     20 C21          3.5400    -1.9710     0.4690 c6         1 D0T       0.116600
     21 C22         -4.0090    -2.7270     0.3930 ca         1 D0T      -0.089300
     22 C23          4.5510    -1.1570    -0.3120 c6         1 D0T       0.126300
     23 C24         -2.4600     3.3970     0.6940 c3         1 D0T       0.198100
     24 C25         -0.3330     2.6420     1.4280 c3         1 D0T       0.228100
     25 C26         -0.7270     3.0390    -0.9190 c3         1 D0T       0.150100
     26 C28         -3.8060    -1.4550     1.1700 c3         1 D0T       0.131300
     27 C29          5.9380    -1.7640    -0.2680 c3         1 D0T      -0.047400
     28 N1          -3.9420    -0.3100     0.2880 ns         1 D0T      -0.464900
     29 N2          -1.2960     2.6040     0.3370 n3         1 D0T      -0.675600
     30 O1          -0.6130    -0.8040    -0.1410 o          1 D0T      -0.727500
     31 O2           9.2240    -0.9830    -1.7850 o          1 D0T      -0.752000
     32 O3          -4.3290     1.1910     1.9320 o          1 D0T      -0.626100
     33 O4          -0.6860    -0.5210     2.0800 o          1 D0T      -0.727500
     34 O5           8.5400    -2.7150    -0.5640 o          1 D0T      -0.752000
     35 O6           2.2540    -1.3830     0.3960 os         1 D0T      -0.308100
     36 O7           4.6080     0.1540     0.2450 os         1 D0T      -0.338100
     37 H1          -6.3570     2.6190    -2.9470 ha         1 D0T       0.097000
     38 H2          -5.1180     4.7680    -2.8660 ha         1 D0T       0.095000
     39 H3          -5.8460     0.8560    -1.3040 ha         1 D0T       0.114000
     40 H4          -3.3520     5.0980    -1.1810 ha         1 D0T       0.104000
     41 H5           2.1030     3.7440     1.2400 ha         1 D0T       0.081000
     42 H6           4.2630     2.6660     0.7290 ha         1 D0T       0.106000
     43 H7          -4.5350    -5.9740    -1.6570 ha         1 D0T       0.090000
     44 H8          -6.3970    -5.0300    -0.3280 ha         1 D0T       0.099500
     45 H9          -2.3400    -4.8340    -1.6790 ha         1 D0T       0.099500
     46 H10         -6.0590    -2.9620     0.9750 ha         1 D0T       0.143000
     47 H11         -2.0080    -2.7540    -0.3670 ha         1 D0T       0.143000
     48 H12          3.4530    -2.9730     0.0500 h1         1 D0T       0.051700
     49 H13          3.8610    -2.0620     1.5140 h1         1 D0T       0.051700
     50 H14          4.2130    -1.0830    -1.3560 h1         1 D0T       0.047700
     51 H15         -2.2220     4.4750     0.7250 h1         1 D0T       0.039200
     52 H16         -2.7680     3.1180     1.7020 h1         1 D0T       0.039200
     53 H17         -0.8110     2.1860     2.2990 h1         1 D0T       0.032700
     54 H18         -0.0910     3.6830     1.7050 h1         1 D0T       0.032700
     55 H19          0.1070     2.3990    -1.2020 h1         1 D0T       0.026700
     56 H20         -1.4700     2.9710    -1.7130 h1         1 D0T       0.026700
     57 H21         -0.3600     4.0790    -0.8930 h1         1 D0T       0.026700
     58 H22          7.0730     0.0260    -0.6900 hc         1 D0T       0.025700
     59 H23          6.6010    -0.8660    -2.1070 hc         1 D0T       0.025700
     60 H24         -4.5600    -1.3770     1.9530 h1         1 D0T       0.085200
     61 H25         -2.8220    -1.4380     1.6430 h1         1 D0T       0.085200
     62 H26          6.2600    -1.8550     0.7740 hc         1 D0T       0.046200
     63 H27          5.8580    -2.7840    -0.6530 hc         1 D0T       0.046200
     64 H28         -3.5800    -0.4070    -0.6470 hn         1 D0T       0.329500
     65 C27          6.9650    -0.9910    -1.0800 c3         1 D0T      -0.203400
     66 C14         -0.2270    -0.3310     0.9390 c          1 D0T       0.744600
@<TRIPOS>BOND
     1     1     2 ar  
     2     1     3 ar  
     3     1    37 1   
     4     2     4 ar  
     5     2    38 1   
     6     3     7 ar  
     7     3    39 1   
     8     4     9 ar  
     9     4    40 1   
    10     5     6 ar  
    11     5    10 ar  
    12     5    41 1   
    13     6    11 ar  
    14     6    42 1   
    15     7     9 ar  
    16     7    13 1   
    17     8    10 ar  
    18     8    12 ar  
    19     8    66 1   
    20     9    23 1   
    21    10    24 1   
    22    11    12 ar  
    23    11    36 1   
    24    12    35 1   
    25    13    28 1   
    26    13    32 2   
    27    14    31 1   
    28    14    34 1   
    29    14    65 1   
    30    15    16 ar  
    31    15    17 ar  
    32    15    43 1   
    33    16    18 ar  
    34    16    44 1   
    35    17    19 ar  
    36    17    45 1   
    37    18    21 ar  
    38    18    46 1   
    39    19    21 ar  
    40    19    47 1   
    41    20    22 1   
    42    20    35 1   
    43    20    48 1   
    44    20    49 1   
    45    21    26 1   
    46    22    27 1   
    47    22    36 1   
    48    22    50 1   
    49    23    29 1   
    50    23    51 1   
    51    23    52 1   
    52    24    29 1   
    53    24    53 1   
    54    24    54 1   
    55    25    29 1   
    56    25    55 1   
    57    25    56 1   
    58    25    57 1   
    59    26    28 1   
    60    26    60 1   
    61    26    61 1   
    62    27    62 1   
    63    27    63 1   
    64    27    65 1   
    65    28    64 1   
    66    30    66 1   
    67    33    66 1   
    68    58    65 1   
    69    59    65 1   
@<TRIPOS>SUBSTRUCTURE
     1 D0T         1 TEMP              0 ****  ****    0 ROOT
