@<TRIPOS>MOLECULE
D0T
   66    69     1     0     0
SMALL
No Charge or Current Charge


@<TRIPOS>ATOM
      1 C1          -5.7480     2.8120    -2.0840 ca         1 D0T      -0.132000
      2 C2          -5.0390     4.0180    -2.0660 ca         1 D0T      -0.116000
      3 C3          -5.4320     1.7980    -1.1670 ca         1 D0T      -0.097000
      4 C4          -4.0080     4.2070    -1.1350 ca         1 D0T      -0.124000
      5 C5           2.2190     2.8330     0.6240 ca         1 D0T      -0.133000
      6 C6           3.4330     2.2110     0.2980 ca         1 D0T      -0.150000
      7 C7          -4.4000     1.9740    -0.2110 ca         1 D0T      -0.100600
      8 C8           1.2260     0.6610     1.1560 ca         1 D0T      -0.090600
      9 C9          -3.6720     3.1980    -0.2060 ca         1 D0T      -0.017300
     10 C10          1.1080     2.0720     1.0480 ca         1 D0T      -0.098300
     11 C11          3.5530     0.8190     0.3950 ca         1 D0T       0.059100
     12 C12          2.4560     0.0410     0.8440 ca         1 D0T       0.060100
     13 C13         -4.1200     0.8620     0.7800 c          1 D0T       0.624700
     14 C15          8.5070    -1.7250    -1.2890 c          1 D0T       0.717000
     15 C16         -4.6680    -5.1730    -1.3540 ca         1 D0T      -0.127000
     16 C17         -5.7630    -4.5940    -0.6910 ca         1 D0T      -0.131500
     17 C18         -3.3910    -4.6040    -1.2260 ca         1 D0T      -0.131500
     18 C19         -5.5810    -3.4470     0.1010 ca         1 D0T      -0.093000
     19 C20         -3.2060    -3.4570    -0.4350 ca         1 D0T      -0.093000
     20 C21          3.9270    -1.8750     0.9790 c6         1 D0T       0.116600
     21 C22         -4.3000    -2.8730     0.2340 ca         1 D0T      -0.089300
     22 C23          4.7600    -1.2060    -0.1390 c6         1 D0T       0.126300
     23 C24         -2.4770     3.4490     0.7230 c3         1 D0T       0.198100
     24 C25         -0.1990     2.8020     1.3810 c3         1 D0T       0.228100
     25 C26         -0.7540     3.1040    -1.0170 c3         1 D0T       0.150100
     26 C28         -4.1010    -1.6290     1.0850 c3         1 D0T       0.131300
     27 C29          6.2390    -1.6880    -0.1620 c3         1 D0T      -0.047400
     28 N1          -4.2820    -0.4150     0.2930 ns         1 D0T      -0.464900
     29 N2          -1.2430     2.7180     0.3290 n3         1 D0T      -0.675600
     30 O1          -0.5030    -0.8930     0.8050 o          1 D0T      -0.727500
     31 O2           9.3600    -1.1600    -0.6230 o          1 D0T      -0.752000
     32 O3          -3.8710     1.0570     1.9630 o          1 D0T      -0.626100
     33 O4          -0.1850    -0.1960     2.8220 o          1 D0T      -0.727500
     34 O5           8.7010    -2.7730    -1.8860 o          1 D0T      -0.752000
     35 O6           2.5920    -1.3290     0.9870 os         1 D0T      -0.308100
     36 O7           4.7530     0.2260     0.0540 os         1 D0T      -0.338100
     37 H1          -6.5490     2.6620    -2.8050 ha         1 D0T       0.097000
     38 H2          -5.2830     4.8050    -2.7770 ha         1 D0T       0.095000
     39 H3          -6.0170     0.8810    -1.1870 ha         1 D0T       0.114000
     40 H4          -3.4510     5.1420    -1.1460 ha         1 D0T       0.104000
     41 H5           2.1370     3.9140     0.5390 ha         1 D0T       0.081000
     42 H6           4.2780     2.8070    -0.0380 ha         1 D0T       0.106000
     43 H7          -4.8100    -6.0610    -1.9670 ha         1 D0T       0.090000
     44 H8          -6.7530    -5.0330    -0.7910 ha         1 D0T       0.099500
     45 H9          -2.5430    -5.0510    -1.7410 ha         1 D0T       0.099500
     46 H10         -6.4340    -3.0020     0.6090 ha         1 D0T       0.143000
     47 H11         -2.2140    -3.0190    -0.3420 ha         1 D0T       0.143000
     48 H12          3.8730    -2.9620     0.8280 h1         1 D0T       0.051700
     49 H13          4.3950    -1.6830     1.9550 h1         1 D0T       0.051700
     50 H14          4.2950    -1.4310    -1.1090 h1         1 D0T       0.047700
     51 H15         -2.2660     4.5270     0.7380 h1         1 D0T       0.039200
     52 H16         -2.7610     3.1980     1.7520 h1         1 D0T       0.039200
     53 H17         -0.5930     2.4030     2.3250 h1         1 D0T       0.032700
     54 H18          0.0360     3.8580     1.5730 h1         1 D0T       0.032700
     55 H19          0.0960     2.4800    -1.3230 h1         1 D0T       0.026700
     56 H20         -1.5370     2.9750    -1.7740 h1         1 D0T       0.026700
     57 H21         -0.4330     4.1540    -1.0290 h1         1 D0T       0.026700
     58 H22          7.1390    -0.0360    -1.1710 hc         1 D0T       0.025700
     59 H23          6.5760    -1.4140    -2.2480 hc         1 D0T       0.025700
     60 H24         -4.8190    -1.6260     1.9170 h1         1 D0T       0.085200
     61 H25         -3.0900    -1.6290     1.5160 h1         1 D0T       0.085200
     62 H26          6.7230    -1.4380     0.7900 hc         1 D0T       0.046200
     63 H27          6.2520    -2.7840    -0.2290 hc         1 D0T       0.046200
     64 H28         -4.4860    -0.5070    -0.6940 hn         1 D0T       0.329500
     65 C27          7.0930    -1.1210    -1.3260 c3         1 D0T      -0.203400
     66 C14          0.0720    -0.1890     1.6250 c          1 D0T       0.744600
@<TRIPOS>BOND
     1     1     2 ar  
     2     1     3 ar  
     3     1    37 1   
     4     2     4 ar  
     5     2    38 1   
     6     3     7 ar  
     7     3    39 1   
     8     4     9 ar  
     9     4    40 1   
    10     5     6 ar  
    11     5    10 ar  
    12     5    41 1   
    13     6    11 ar  
    14     6    42 1   
    15     7     9 ar  
    16     7    13 1   
    17     8    10 ar  
    18     8    12 ar  
    19     8    66 1   
    20     9    23 1   
    21    10    24 1   
    22    11    12 ar  
    23    11    36 1   
    24    12    35 1   
    25    13    28 1   
    26    13    32 2   
    27    14    31 1   
    28    14    34 1   
    29    14    65 1   
    30    15    16 ar  
    31    15    17 ar  
    32    15    43 1   
    33    16    18 ar  
    34    16    44 1   
    35    17    19 ar  
    36    17    45 1   
    37    18    21 ar  
    38    18    46 1   
    39    19    21 ar  
    40    19    47 1   
    41    20    22 1   
    42    20    35 1   
    43    20    48 1   
    44    20    49 1   
    45    21    26 1   
    46    22    27 1   
    47    22    36 1   
    48    22    50 1   
    49    23    29 1   
    50    23    51 1   
    51    23    52 1   
    52    24    29 1   
    53    24    53 1   
    54    24    54 1   
    55    25    29 1   
    56    25    55 1   
    57    25    56 1   
    58    25    57 1   
    59    26    28 1   
    60    26    60 1   
    61    26    61 1   
    62    27    62 1   
    63    27    63 1   
    64    27    65 1   
    65    28    64 1   
    66    30    66 1   
    67    33    66 1   
    68    58    65 1   
    69    59    65 1   
@<TRIPOS>SUBSTRUCTURE
     1 D0T         1 TEMP              0 ****  ****    0 ROOT
