@<TRIPOS>MOLECULE
D0U
   17    17     1     0     0
SMALL
bcc


@<TRIPOS>ATOM
      1 O2          -2.2970    -1.7940     0.0870 o          1 D0U      -0.416000
      2 C7          -1.8430    -0.6630     0.1430 c2         1 D0U       0.475100
      3 O1          -2.6830     0.3510     0.2190 oh         1 D0U      -0.643100
      4 C3          -0.3870    -0.3910     0.1280 cc         1 D0U      -0.288200
      5 C2           0.4420    -1.5200     0.0420 cc         1 D0U      -0.025000
      6 C4           0.2240     0.8930     0.1900 cs         1 D0U       0.399800
      7 S1          -0.6520     2.4000     0.2960 s          1 D0U      -0.923400
      8 C5           1.6240     0.9520     0.1630 cc         1 D0U      -0.267200
      9 C6           2.4310    -0.1810     0.0830 cd         1 D0U       0.174000
     10 N1           3.7970    -0.0780     0.1120 nv         1 D0U      -0.848600
     11 C1           1.8120    -1.4430     0.0190 cd         1 D0U      -0.279000
     12 H2          -0.0200    -2.4970    -0.0100 ha         1 D0U       0.129000
     13 H3          -2.1780     1.2270     0.2550 ho         1 D0U       0.510000
     14 H4           2.0950     1.9270     0.2090 ha         1 D0U       0.131000
     15 H5           4.1930     0.8120    -0.1410 hn         1 D0U       0.382300
     16 H6           4.3190    -0.8570    -0.2540 hn         1 D0U       0.382300
     17 H7           2.4120    -2.3420    -0.0480 ha         1 D0U       0.106000
@<TRIPOS>BOND
     1     1     2 1   
     2     2     3 1   
     3     2     4 2   
     4     3    13 1   
     5     4     5 1   
     6     4     6 1   
     7     5    11 2   
     8     5    12 1   
     9     6     7 2   
    10     6     8 1   
    11     8     9 2   
    12     8    14 1   
    13     9    10 1   
    14     9    11 1   
    15    10    15 1   
    16    10    16 1   
    17    11    17 1   
@<TRIPOS>SUBSTRUCTURE
     1 D0U         1 TEMP              0 ****  ****    0 ROOT
