@<TRIPOS>MOLECULE
D0U
   17    17     1     0     0
SMALL
No Charge or Current Charge


@<TRIPOS>ATOM
      1 O2          -2.2810    -1.7530     0.1110 o          1 D0U      -0.681300
      2 C7          -1.7660    -0.6390     0.1580 c2         1 D0U       0.740400
      3 O1          -2.5920     0.3910     0.2460 oh         1 D0U      -0.677100
      4 C3          -0.4140    -0.3940     0.1250 cc         1 D0U      -0.288200
      5 C2           0.4220    -1.5700     0.0280 cc         1 D0U      -0.075000
      6 C4           0.1560     0.9310     0.1820 cs         1 D0U       0.399800
      7 S1          -0.7050     2.3690     0.2950 s          1 D0U      -0.923400
      8 C5           1.5850     0.9710     0.1340 cc         1 D0U      -0.317200
      9 C6           2.3820    -0.1380     0.0420 cd         1 D0U       0.174000
     10 N1           3.7340    -0.0740    -0.0020 nv         1 D0U      -0.959000
     11 C1           1.7930    -1.4360    -0.0120 cd         1 D0U      -0.329000
     12 H2          -0.0140    -2.5680    -0.0150 ha         1 D0U       0.179000
     13 H3          -1.9570     1.1640     0.2690 ho         1 D0U       0.544000
     14 H4           2.0270     1.9580     0.1770 ha         1 D0U       0.181000
     15 H5           4.2130     0.8240    -0.0300 hn         1 D0U       0.437500
     16 H6           4.2890    -0.9170    -0.1320 hn         1 D0U       0.437500
     17 H7           2.4170    -2.3220    -0.0850 ha         1 D0U       0.156000
@<TRIPOS>BOND
     1     1     2 1   
     2     2     3 1   
     3     2     4 2   
     4     3    13 1   
     5     4     5 1   
     6     4     6 1   
     7     5    11 2   
     8     5    12 1   
     9     6     7 2   
    10     6     8 1   
    11     8     9 2   
    12     8    14 1   
    13     9    10 1   
    14     9    11 1   
    15    10    15 1   
    16    10    16 1   
    17    11    17 1   
@<TRIPOS>SUBSTRUCTURE
     1 D0U         1 TEMP              0 ****  ****    0 ROOT
