@<TRIPOS>MOLECULE
D0V
   54    58     1     0     0
SMALL
bcc


@<TRIPOS>ATOM
      1 C4          -0.3090    -1.4140    -1.3210 ce         1 D0V      -0.285600
      2 C6          -2.8470    -0.9460    -0.3320 ca         1 D0V       0.023900
      3 C11         -2.9490     0.1110     1.8330 ca         1 D0V      -0.119000
      4 C7          -4.2130    -1.2020    -0.2370 ca         1 D0V       0.041400
      5 C9          -4.9440    -0.8180     0.8760 ca         1 D0V      -0.114000
      6 C10         -4.3070    -0.1630     1.9190 ca         1 D0V      -0.126000
      7 C12         -2.2270    -0.2720     0.7140 ca         1 D0V      -0.117000
      8 C13          0.2820    -2.6320    -0.7510 c          1 D0V       0.736700
      9 C3           1.9300    -0.3590    -1.3820 c6         1 D0V      -0.040200
     10 C2           0.4640    -0.3460    -1.6360 c2         1 D0V       0.247900
     11 S5          -1.9920    -1.4540    -1.8000 ss         1 D0V      -0.148500
     12 CL8         -5.0240    -2.0120    -1.5380 cl         1 D0V      -0.096400
     13 N14          1.6120    -2.5760    -0.4650 ns         1 D0V      -0.567900
     14 C15          2.3310    -1.3230    -0.2640 c6         1 D0V       0.161400
     15 C16          3.8140    -1.5870    -0.4040 cc         1 D0V      -0.133300
     16 C17          4.7910    -0.9340     0.2880 cd         1 D0V      -0.102100
     17 S18          6.3550    -1.4130    -0.2150 ss         1 D0V      -0.065800
     18 C19          5.7150    -2.5030    -1.3690 cd         1 D0V      -0.121100
     19 C20          4.3560    -2.4920    -1.3660 cc         1 D0V      -0.133000
     20 C21          1.9960    -0.7850     1.1310 ca         1 D0V       0.431600
     21 N22          1.3220     0.3570     1.2120 nb         1 D0V      -0.742000
     22 C23          0.9760     0.8220     2.4080 ca         1 D0V       0.690200
     23 N24          0.2500     1.9800     2.5070 nu         1 D0V      -0.754300
     24 C25         -0.3460     2.7530     1.5120 ca         1 D0V       0.152600
     25 C26         -1.5040     3.4570     1.8550 ca         1 D0V      -0.139000
     26 C27         -2.1480     4.2680     0.9380 ca         1 D0V      -0.141000
     27 C28         -1.6330     4.3650    -0.3400 ca         1 D0V       0.108900
     28 F29         -2.2610     5.1410    -1.2440 f          1 D0V      -0.143900
     29 C30         -0.4880     3.6900    -0.7080 ca         1 D0V      -0.141000
     30 C31          0.1630     2.8910     0.2220 ca         1 D0V      -0.139000
     31 C32          1.3180     0.1540     3.5940 ca         1 D0V      -0.307300
     32 C33          2.0110    -1.0300     3.4960 ca         1 D0V      -0.049000
     33 C34          2.3590    -1.5250     2.2440 ca         1 D0V      -0.276300
     34 O35         -0.3650    -3.6540    -0.5850 o          1 D0V      -0.608500
     35 H1          -2.4460     0.6290     2.6380 ha         1 D0V       0.125000
     36 H2          -6.0030    -1.0330     0.9260 ha         1 D0V       0.146000
     37 H3          -4.8740     0.1350     2.7900 ha         1 D0V       0.133000
     38 H4          -1.1720    -0.0400     0.6480 ha         1 D0V       0.149000
     39 H5           2.4160    -0.6710    -2.3130 hc         1 D0V       0.089700
     40 H6           2.2900     0.6450    -1.1620 hc         1 D0V       0.089700
     41 H7          -0.9180     0.6540    -2.4410 ho         1 D0V       0.461000
     42 H8           1.9770    -3.3850     0.0180 hn         1 D0V       0.314500
     43 H9           4.6780    -0.1960     1.0660 h4         1 D0V       0.175000
     44 H10          6.3710    -3.0980    -1.9860 h4         1 D0V       0.173000
     45 H11          3.7540    -3.1040    -2.0220 ha         1 D0V       0.167000
     46 H12         -0.0400     2.2090     3.4450 hn         1 D0V       0.438800
     47 H13         -1.9130     3.3650     2.8540 ha         1 D0V       0.145000
     48 H14         -3.0460     4.8050     1.2160 ha         1 D0V       0.152000
     49 H15         -0.0930     3.7870    -1.7100 ha         1 D0V       0.152000
     50 H16          1.0680     2.3820    -0.0660 ha         1 D0V       0.145000
     51 H17          1.0320     0.5570     4.5570 ha         1 D0V       0.142000
     52 H18          2.2810    -1.5730     4.3920 ha         1 D0V       0.141000
     53 H19          2.9060    -2.4530     2.1520 ha         1 D0V       0.151000
     54 O1           0.0320     0.7360    -2.2430 oh         1 D0V      -0.472100
@<TRIPOS>BOND
     1     1     8 1   
     2     1    10 2   
     3     1    11 1   
     4     2     4 ar  
     5     2     7 ar  
     6     2    11 1   
     7     3     6 ar  
     8     3     7 ar  
     9     3    35 1   
    10     4     5 ar  
    11     4    12 1   
    12     5     6 ar  
    13     5    36 1   
    14     6    37 1   
    15     7    38 1   
    16     8    13 1   
    17     8    34 2   
    18     9    10 1   
    19     9    14 1   
    20     9    39 1   
    21     9    40 1   
    22    10    54 1   
    23    13    14 1   
    24    13    42 1   
    25    14    15 1   
    26    14    20 1   
    27    15    16 2   
    28    15    19 1   
    29    16    17 1   
    30    16    43 1   
    31    17    18 1   
    32    18    19 2   
    33    18    44 1   
    34    19    45 1   
    35    20    21 ar  
    36    20    33 ar  
    37    21    22 ar  
    38    22    23 1   
    39    22    31 ar  
    40    23    24 1   
    41    23    46 1   
    42    24    25 ar  
    43    24    30 ar  
    44    25    26 ar  
    45    25    47 1   
    46    26    27 ar  
    47    26    48 1   
    48    27    28 1   
    49    27    29 ar  
    50    29    30 ar  
    51    29    49 1   
    52    30    50 1   
    53    31    32 ar  
    54    31    51 1   
    55    32    33 ar  
    56    32    52 1   
    57    33    53 1   
    58    41    54 1   
@<TRIPOS>SUBSTRUCTURE
     1 D0V         1 TEMP              0 ****  ****    0 ROOT
