@<TRIPOS>MOLECULE
D0V
   54    58     1     0     0
SMALL
No Charge or Current Charge


@<TRIPOS>ATOM
      1 C4          -0.2770    -1.8270    -1.2160 ce         1 D0V      -0.285600
      2 C6          -2.7610    -1.0230    -0.2480 ca         1 D0V      -0.103000
      3 C11         -3.1040    -0.4160     2.0890 ca         1 D0V      -0.101000
      4 C7          -3.5740     0.0600    -0.6420 ca         1 D0V       0.133000
      5 C9          -4.1600     0.8900     0.3280 ca         1 D0V      -0.096000
      6 C10         -3.9310     0.6500     1.6940 ca         1 D0V      -0.108000
      7 C12         -2.5210    -1.2510     1.1200 ca         1 D0V      -0.099000
      8 C13          0.4800    -2.9580    -0.5970 c          1 D0V       0.594200
      9 C3           1.8510    -0.5270    -1.4590 c6         1 D0V      -0.040200
     10 C2           0.3550    -0.7040    -1.6010 c2         1 D0V       0.247900
     11 S5          -2.0250    -2.1190    -1.4550 ss         1 D0V      -0.021600
     12 Cl8         -3.8560     0.4030    -2.3470 cl         1 D0V      -0.188000
     13 N14          1.7910    -2.7000    -0.2840 ns         1 D0V      -0.500900
     14 C15          2.4190    -1.3640    -0.2750 c6         1 D0V       0.161400
     15 C16          3.9190    -1.5020    -0.5220 cc         1 D0V      -0.133300
     16 C17          4.8870    -0.6760    -0.0010 cd         1 D0V      -0.229000
     17 S18          6.5120    -1.1450    -0.5290 ss         1 D0V       0.224000
     18 C19          5.8260    -2.4650    -1.4870 cd         1 D0V      -0.248000
     19 C20          4.4610    -2.5070    -1.3720 cc         1 D0V      -0.115000
     20 C21          2.1360    -0.7380     1.1340 ca         1 D0V       0.366300
     21 N22          1.2710     0.3060     1.2220 nb         1 D0V      -0.742000
     22 C23          1.0190     0.8260     2.4260 ca         1 D0V       0.624900
     23 N24          0.1140     1.8670     2.4830 nu         1 D0V      -0.947900
     24 C25         -0.6980     2.5410     1.5590 ca         1 D0V       0.291000
     25 C26         -1.8550     3.1810     2.0460 ca         1 D0V      -0.121000
     26 C27         -2.7150     3.8760     1.1740 ca         1 D0V      -0.123000
     27 C28         -2.4170     3.9400    -0.1940 ca         1 D0V       0.144000
     28 F29         -3.2450     4.5990    -1.0340 f          1 D0V      -0.179000
     29 C30         -1.2570     3.3310    -0.6910 ca         1 D0V      -0.123000
     30 C31         -0.3960     2.6420     0.1840 ca         1 D0V      -0.121000
     31 C32          1.5920     0.3410     3.6080 ca         1 D0V      -0.224000
     32 C33          2.4740    -0.7450     3.5420 ca         1 D0V      -0.031000
     33 C34          2.7420    -1.2930     2.2810 ca         1 D0V      -0.193000
     34 O35         -0.0040    -4.0540    -0.3720 o          1 D0V      -0.533000
     35 H1          -2.9180    -0.5970     3.1450 ha         1 D0V       0.107000
     36 H2          -4.7870     1.7230     0.0200 ha         1 D0V       0.128000
     37 H3          -4.3830     1.2940     2.4440 ha         1 D0V       0.115000
     38 H4          -1.8870    -2.0780     1.4320 ha         1 D0V       0.131000
     39 H5           2.3130    -0.8550    -2.4000 hc         1 D0V       0.089700
     40 H6           2.1160     0.5320    -1.3460 hc         1 D0V       0.089700
     41 H7          -1.2150     0.0780    -2.2300 ho         1 D0V       0.500000
     42 H8           2.3110    -3.4720     0.1120 hn         1 D0V       0.314500
     43 H9           4.7640     0.1780     0.6550 h4         1 D0V       0.157000
     44 H10          6.4720    -3.1110    -2.0690 h4         1 D0V       0.155000
     45 H11          3.8420    -3.2360    -1.8890 ha         1 D0V       0.149000
     46 H12         -0.1040     2.1000     3.4460 hn         1 D0V       0.494000
     47 H13         -2.1000     3.1290     3.1030 ha         1 D0V       0.127000
     48 H14         -3.6120     4.3570     1.5570 ha         1 D0V       0.134000
     49 H15         -1.0210     3.3970    -1.7510 ha         1 D0V       0.134000
     50 H16          0.5100     2.2050    -0.2180 ha         1 D0V       0.127000
     51 H17          1.3500     0.7930     4.5640 ha         1 D0V       0.124000
     52 H18          2.9330    -1.1520     4.4410 ha         1 D0V       0.123000
     53 H19          3.4170    -2.1390     2.1870 ha         1 D0V       0.133000
     54 O1          -0.2650     0.3130    -2.2150 oh         1 D0V      -0.511100
@<TRIPOS>BOND
     1     1     8 1   
     2     1    10 2   
     3     1    11 1   
     4     2     4 ar  
     5     2     7 ar  
     6     2    11 1   
     7     3     6 ar  
     8     3     7 ar  
     9     3    35 1   
    10     4     5 ar  
    11     4    12 1   
    12     5     6 ar  
    13     5    36 1   
    14     6    37 1   
    15     7    38 1   
    16     8    13 1   
    17     8    34 2   
    18     9    10 1   
    19     9    14 1   
    20     9    39 1   
    21     9    40 1   
    22    10    54 1   
    23    13    14 1   
    24    13    42 1   
    25    14    15 1   
    26    14    20 1   
    27    15    16 2   
    28    15    19 1   
    29    16    17 1   
    30    16    43 1   
    31    17    18 1   
    32    18    19 2   
    33    18    44 1   
    34    19    45 1   
    35    20    21 ar  
    36    20    33 ar  
    37    21    22 ar  
    38    22    23 1   
    39    22    31 ar  
    40    23    24 1   
    41    23    46 1   
    42    24    25 ar  
    43    24    30 ar  
    44    25    26 ar  
    45    25    47 1   
    46    26    27 ar  
    47    26    48 1   
    48    27    28 1   
    49    27    29 ar  
    50    29    30 ar  
    51    29    49 1   
    52    30    50 1   
    53    31    32 ar  
    54    31    51 1   
    55    32    33 ar  
    56    32    52 1   
    57    33    53 1   
    58    41    54 1   
@<TRIPOS>SUBSTRUCTURE
     1 D0V         1 TEMP              0 ****  ****    0 ROOT
