@<TRIPOS>MOLECULE
D0W
   68    69     1     0     0
SMALL
abcg2


@<TRIPOS>ATOM
      1 C10         -4.0020     0.0090    -1.0260 c          1 D0W       0.605100
      2 N12         -2.7440     0.2810    -0.6540 ns         1 D0W      -0.465900
      3 C13         -1.5650     0.0140    -1.4480 c3         1 D0W       0.113000
      4 C15          0.6230    -1.1700    -1.6010 c3         1 D0W      -0.038400
      5 C17          3.0880    -1.7750    -1.8420 c5         1 D0W      -0.066900
      6 C20          1.8800    -2.7810    -0.0630 c5         1 D0W      -0.066900
      7 C21          2.3270    -0.3040     0.0400 c          1 D0W       0.613100
      8 C24          2.5820     2.1500     0.0710 c3         1 D0W      -0.034300
      9 C26          5.0870     1.7500     0.2000 ca         1 D0W      -0.058300
     10 C28          6.8130     0.1800    -0.4640 ca         1 D0W      -0.177000
     11 C01         -7.8750     2.0350    -1.3680 c3         1 D0W      -0.173100
     12 C02         -6.4850     1.7360    -0.8680 c          1 D0W       0.588100
     13 C05         -5.0120     0.0690     0.1190 c3         1 D0W       0.045700
     14 C06         -5.1420    -1.3160     0.7430 c3         1 D0W      -0.235400
     15 C07         -5.9980    -1.3430     2.0270 c          1 D0W       0.719000
     16 C14         -0.5690    -0.8660    -0.6920 c3         1 D0W      -0.222700
     17 C16          1.9340    -1.4780    -0.8680 c5         1 D0W      -0.116000
     18 C18          4.1390    -2.4850    -0.9860 c5         1 D0W      -0.078900
     19 C19          3.3390    -3.2360     0.1010 c5         1 D0W      -0.078900
     20 C25          3.9960     2.7200    -0.1520 c3         1 D0W      -0.036100
     21 C27          5.8160     1.0930    -0.7830 ca         1 D0W      -0.067000
     22 C29          7.0950    -0.1000     0.8670 ca         1 D0W       0.095100
     23 C30          6.3760     0.5510     1.8680 ca         1 D0W      -0.177000
     24 C31          5.3870     1.4570     1.5280 ca         1 D0W      -0.067000
     25 C33          1.5440     3.1750    -0.4440 c          1 D0W       0.715000
     26 C36         -1.2950    -2.1360    -0.1960 c          1 D0W       0.715000
     27 N04         -6.2970     0.5100    -0.3570 ns         1 D0W      -0.444900
     28 N23          2.4120     0.8810    -0.5850 ns         1 D0W      -0.476900
     29 O03         -5.5870     2.5680    -0.9100 o          1 D0W      -0.633100
     30 O08         -6.6460    -2.3880     2.2340 o          1 D0W      -0.757500
     31 O09         -5.9410    -0.3410     2.7650 o          1 D0W      -0.757500
     32 O11         -4.3310    -0.3110    -2.1590 o          1 D0W      -0.671100
     33 O22          2.5380    -0.4390     1.2380 o          1 D0W      -0.644100
     34 O32          8.0470    -0.9830     1.2450 oh         1 D0W      -0.556100
     35 O34          1.4240     4.2080     0.2420 o          1 D0W      -0.726500
     36 O35          0.9560     2.9080    -1.5100 o          1 D0W      -0.726500
     37 O37         -1.4970    -2.2370     1.0320 o          1 D0W      -0.738500
     38 O38         -1.6530    -2.9470    -1.0730 o          1 D0W      -0.738500
     39 H121        -2.5880     0.5380     0.3080 hn         1 D0W       0.321500
     40 H131        -1.8770    -0.4770    -2.3690 h1         1 D0W       0.047700
     41 H132        -1.0730     0.9540    -1.7200 h1         1 D0W       0.047700
     42 H151         0.3770    -2.0240    -2.2370 hc         1 D0W       0.032200
     43 H152         0.7780    -0.3350    -2.2940 hc         1 D0W       0.032200
     44 H172         2.7120    -2.4430    -2.6240 hc         1 D0W       0.053200
     45 H171         3.4740    -0.8840    -2.3410 hc         1 D0W       0.053200
     46 H202         1.3530    -2.6750     0.8840 hc         1 D0W       0.053200
     47 H201         1.3220    -3.5130    -0.6540 hc         1 D0W       0.053200
     48 H241         2.4370     2.0000     1.1420 h1         1 D0W       0.069700
     49 H281         7.3590    -0.3200    -1.2570 ha         1 D0W       0.097500
     50 H011        -8.5650     1.1990    -1.2660 hc         1 D0W       0.034033
     51 H012        -8.2810     2.8850    -0.8200 hc         1 D0W       0.034033
     52 H013        -7.8290     2.3190    -2.4200 hc         1 D0W       0.034033
     53 H051        -4.6570     0.7570     0.8910 h1         1 D0W       0.090700
     54 H061        -5.5330    -2.0200     0.0040 hc         1 D0W       0.068200
     55 H062        -4.1380    -1.6700     1.0020 hc         1 D0W       0.068200
     56 H141        -0.2290    -0.2980     0.1820 hc         1 D0W       0.054700
     57 H181         4.7670    -3.1500    -1.5810 hc         1 D0W       0.021950
     58 H182         4.8030    -1.7500    -0.5310 hc         1 D0W       0.021950
     59 H192         3.7160    -2.9860     1.0920 hc         1 D0W       0.021950
     60 H191         3.4270    -4.3190    -0.0070 hc         1 D0W       0.021950
     61 H252         4.0980     3.0140    -1.2020 hc         1 D0W       0.043700
     62 H251         4.0900     3.6310     0.4420 hc         1 D0W       0.043700
     63 H271         5.6070     1.2950    -1.8270 ha         1 D0W       0.114500
     64 H301         6.5950     0.3420     2.9080 ha         1 D0W       0.097500
     65 H311         4.8370     1.9510     2.3210 ha         1 D0W       0.114500
     66 H041        -7.0460    -0.1600    -0.4070 hn         1 D0W       0.311500
     67 H231         2.1060     0.9490    -1.5420 hn         1 D0W       0.323500
     68 H321         8.4750    -1.3610     0.4690 ho         1 D0W       0.442000
@<TRIPOS>BOND
     1     1     2 1   
     2     1    13 1   
     3     1    32 2   
     4     2     3 1   
     5     2    39 1   
     6     3    16 1   
     7     3    40 1   
     8     3    41 1   
     9     4    16 1   
    10     4    17 1   
    11     4    42 1   
    12     4    43 1   
    13     5    17 1   
    14     5    18 1   
    15     5    44 1   
    16     5    45 1   
    17     6    17 1   
    18     6    19 1   
    19     6    46 1   
    20     6    47 1   
    21     7    17 1   
    22     7    28 1   
    23     7    33 2   
    24     8    20 1   
    25     8    25 1   
    26     8    28 1   
    27     8    48 1   
    28     9    20 1   
    29     9    21 ar  
    30     9    24 ar  
    31    10    21 ar  
    32    10    22 ar  
    33    10    49 1   
    34    11    12 1   
    35    11    50 1   
    36    11    51 1   
    37    11    52 1   
    38    12    27 1   
    39    12    29 2   
    40    13    14 1   
    41    13    27 1   
    42    13    53 1   
    43    14    15 1   
    44    14    54 1   
    45    14    55 1   
    46    15    30 1   
    47    15    31 1   
    48    16    26 1   
    49    16    56 1   
    50    18    19 1   
    51    18    57 1   
    52    18    58 1   
    53    19    59 1   
    54    19    60 1   
    55    20    61 1   
    56    20    62 1   
    57    21    63 1   
    58    22    23 ar  
    59    22    34 1   
    60    23    24 ar  
    61    23    64 1   
    62    24    65 1   
    63    25    35 1   
    64    25    36 1   
    65    26    37 1   
    66    26    38 1   
    67    27    66 1   
    68    28    67 1   
    69    34    68 1   
@<TRIPOS>SUBSTRUCTURE
     1 D0W         1 TEMP              0 ****  ****    0 ROOT
