@<TRIPOS>MOLECULE
D0W
   68    69     1     0     0
SMALL
No Charge or Current Charge


@<TRIPOS>ATOM
      1 C10         -4.3890    -0.2410    -0.9370 c          1 D0W       0.605100
      2 N12         -3.0840    -0.5100    -0.5860 ns         1 D0W      -0.465900
      3 C13         -1.9960    -0.7100    -1.5430 c3         1 D0W       0.113000
      4 C15          0.5000    -1.1400    -1.8890 c3         1 D0W      -0.038400
      5 C17          2.9710    -1.4760    -2.5510 c5         1 D0W      -0.066900
      6 C20          2.3580    -2.3540    -0.4570 c5         1 D0W      -0.066900
      7 C21          2.2920     0.2030    -0.6150 c          1 D0W       0.613100
      8 C24          3.4830     2.4270    -1.0010 c3         1 D0W      -0.034300
      9 C26          5.4850     1.4390     0.3270 ca         1 D0W      -0.058300
     10 C28          6.9760    -0.3790     0.9980 ca         1 D0W      -0.177000
     11 C01         -8.6400     1.9240    -0.2980 c3         1 D0W      -0.173100
     12 C02         -7.3320     1.5370     0.3890 c          1 D0W       0.588100
     13 C05         -5.3780    -0.0790     0.2600 c3         1 D0W       0.045700
     14 C06         -5.6140    -1.4240     1.0070 c3         1 D0W      -0.235400
     15 C07         -6.4830    -1.2350     2.2530 c          1 D0W       0.719000
     16 C14         -0.6560    -1.0290    -0.8460 c3         1 D0W      -0.222700
     17 C16          1.9770    -1.1490    -1.3750 c5         1 D0W      -0.116000
     18 C18          4.3190    -1.7920    -1.8390 c5         1 D0W      -0.078900
     19 C19          3.9110    -2.2820    -0.4150 c5         1 D0W      -0.078900
     20 C25          5.0100     2.4380    -0.7280 c3         1 D0W      -0.036100
     21 C27          6.5230     0.5330     0.0280 ca         1 D0W      -0.067000
     22 C29          6.3980    -0.3860     2.2770 ca         1 D0W       0.095100
     23 C30          5.3750     0.5200     2.5890 ca         1 D0W      -0.177000
     24 C31          4.9210     1.4330     1.6190 ca         1 D0W      -0.067000
     25 C33          3.1030     3.4940    -2.0730 c          1 D0W       0.715000
     26 C36         -0.8140    -2.2900     0.0290 c          1 D0W       0.715000
     27 N04         -6.6530     0.5030    -0.2150 ns         1 D0W      -0.444900
     28 N23          2.9960     1.0860    -1.4120 ns         1 D0W      -0.476900
     29 O03         -6.9170     2.1140     1.3840 o          1 D0W      -0.633100
     30 O08         -7.6890    -1.3980     2.1520 o          1 D0W      -0.757500
     31 O09         -5.9250    -0.9450     3.2990 o          1 D0W      -0.757500
     32 O11         -4.7280    -0.1350    -2.1120 o          1 D0W      -0.671100
     33 O22          2.0170     0.4600     0.5510 o          1 D0W      -0.644100
     34 O32          6.8340    -1.2660     3.2190 oh         1 D0W      -0.556100
     35 O34          2.5190     4.5030    -1.7010 o          1 D0W      -0.726500
     36 O35          3.3250     3.2450    -3.2510 o          1 D0W      -0.726500
     37 O37         -0.7770    -2.1540     1.2430 o          1 D0W      -0.738500
     38 O38         -1.0170    -3.3640    -0.5190 o          1 D0W      -0.738500
     39 H121        -2.8780    -0.5890     0.4020 hn         1 D0W       0.321500
     40 H131        -2.2670    -1.5310    -2.2200 h1         1 D0W       0.047700
     41 H132        -1.8910     0.2050    -2.1430 h1         1 D0W       0.047700
     42 H151         0.3210    -2.0350    -2.4980 hc         1 D0W       0.032200
     43 H152         0.4020    -0.2970    -2.5860 hc         1 D0W       0.032200
     44 H172         2.6330    -2.3610    -3.1050 hc         1 D0W       0.053200
     45 H171         3.0600    -0.6860    -3.3040 hc         1 D0W       0.053200
     46 H202         1.9270    -2.2830     0.5470 hc         1 D0W       0.053200
     47 H201         2.0190    -3.3070    -0.8810 hc         1 D0W       0.053200
     48 H241         2.9650     2.7180    -0.0790 h1         1 D0W       0.069700
     49 H281         7.7730    -1.0750     0.7490 ha         1 D0W       0.097500
     50 H011        -9.2840     1.0390    -0.3680 hc         1 D0W       0.034033
     51 H012        -9.1520     2.7570     0.1990 hc         1 D0W       0.034033
     52 H013        -8.4400     2.1460    -1.3530 hc         1 D0W       0.034033
     53 H051        -4.9020     0.6270     0.9550 h1         1 D0W       0.090700
     54 H061        -6.1150    -2.0900     0.2940 hc         1 D0W       0.068200
     55 H062        -4.6220    -1.7740     1.3140 hc         1 D0W       0.068200
     56 H141        -0.4480    -0.1820    -0.1840 hc         1 D0W       0.054700
     57 H181         4.8870    -2.5540    -2.3850 hc         1 D0W       0.021950
     58 H182         4.9590    -0.9060    -1.7820 hc         1 D0W       0.021950
     59 H192         4.2520    -1.5770     0.3520 hc         1 D0W       0.021950
     60 H191         4.3560    -3.2520    -0.1690 hc         1 D0W       0.021950
     61 H252         5.5320     2.2570    -1.6760 hc         1 D0W       0.043700
     62 H251         5.2980     3.4490    -0.4160 hc         1 D0W       0.043700
     63 H271         6.9800     0.5320    -0.9600 ha         1 D0W       0.114500
     64 H301         4.9300     0.5190     3.5800 ha         1 D0W       0.097500
     65 H311         4.1290     2.1330     1.8740 ha         1 D0W       0.114500
     66 H041        -7.0620     0.1260    -1.0620 hn         1 D0W       0.311500
     67 H231         3.1720     0.7930    -2.3640 hn         1 D0W       0.323500
     68 H321         7.5460    -1.8140     2.8240 ho         1 D0W       0.442000
@<TRIPOS>BOND
     1     1     2 1   
     2     1    13 1   
     3     1    32 2   
     4     2     3 1   
     5     2    39 1   
     6     3    16 1   
     7     3    40 1   
     8     3    41 1   
     9     4    16 1   
    10     4    17 1   
    11     4    42 1   
    12     4    43 1   
    13     5    17 1   
    14     5    18 1   
    15     5    44 1   
    16     5    45 1   
    17     6    17 1   
    18     6    19 1   
    19     6    46 1   
    20     6    47 1   
    21     7    17 1   
    22     7    28 1   
    23     7    33 2   
    24     8    20 1   
    25     8    25 1   
    26     8    28 1   
    27     8    48 1   
    28     9    20 1   
    29     9    21 ar  
    30     9    24 ar  
    31    10    21 ar  
    32    10    22 ar  
    33    10    49 1   
    34    11    12 1   
    35    11    50 1   
    36    11    51 1   
    37    11    52 1   
    38    12    27 1   
    39    12    29 2   
    40    13    14 1   
    41    13    27 1   
    42    13    53 1   
    43    14    15 1   
    44    14    54 1   
    45    14    55 1   
    46    15    30 1   
    47    15    31 1   
    48    16    26 1   
    49    16    56 1   
    50    18    19 1   
    51    18    57 1   
    52    18    58 1   
    53    19    59 1   
    54    19    60 1   
    55    20    61 1   
    56    20    62 1   
    57    21    63 1   
    58    22    23 ar  
    59    22    34 1   
    60    23    24 ar  
    61    23    64 1   
    62    24    65 1   
    63    25    35 1   
    64    25    36 1   
    65    26    37 1   
    66    26    38 1   
    67    27    66 1   
    68    28    67 1   
    69    34    68 1   
@<TRIPOS>SUBSTRUCTURE
     1 D0W         1 TEMP              0 ****  ****    0 ROOT
