@<TRIPOS>MOLECULE
D0Y
   54    58     1     0     0
SMALL
abcg2


@<TRIPOS>ATOM
      1 C4          -2.6070     0.3050    -0.2240 ce         1 D0Y      -0.310600
      2 C6          -4.5750    -1.5960     0.1400 ca         1 D0Y      -0.104000
      3 C11         -5.8340    -2.0620     0.5110 ca         1 D0Y       0.126000
      4 C7          -3.5920    -2.5270    -0.1780 ca         1 D0Y      -0.098000
      5 C8          -3.8650    -3.8850    -0.1180 ca         1 D0Y      -0.097000
      6 C9          -5.1230    -4.3340     0.2580 ca         1 D0Y      -0.105000
      7 C10         -6.1140    -3.4170     0.5720 ca         1 D0Y      -0.091000
      8 C13         -1.6700     0.1630     0.8830 c          1 D0Y       0.700300
      9 C3          -0.7020     0.7150    -1.7300 c6         1 D0Y      -0.082200
     10 C2          -2.1600     0.5560    -1.4800 c2         1 D0Y       0.234900
     11 S5          -4.3210     0.1590     0.0960 ss         1 D0Y      -0.013600
     12 CL12        -7.0780    -0.9220     0.9020 cl         1 D0Y      -0.188000
     13 O14         -0.3790     0.4490     0.6510 os         1 D0Y      -0.447100
     14 C15         -0.0020     1.2450    -0.4810 c6         1 D0Y       0.331600
     15 C16         -0.3610     2.6780    -0.1700 cc         1 D0Y      -0.142300
     16 C17         -1.0180     3.5390    -0.9960 cd         1 D0Y      -0.241000
     17 S18         -1.2010     5.0850    -0.2880 ss         1 D0Y       0.221000
     18 C19         -0.3900     4.5910     1.1390 cd         1 D0Y      -0.245000
     19 C20          0.0030     3.2930     1.0650 cc         1 D0Y      -0.095000
     20 C21          1.5000     1.0840    -0.6530 ca         1 D0Y      -0.049300
     21 C22          2.1510    -0.0470    -0.1870 ca         1 D0Y      -0.149000
     22 C23          3.5200    -0.2400    -0.4160 ca         1 D0Y       0.324000
     23 N24          4.0920    -1.4030     0.0580 nu         1 D0Y      -0.994000
     24 C25          5.4390    -1.7170     0.1860 ca         1 D0Y       0.302000
     25 C26          6.4080    -0.7680     0.5200 ca         1 D0Y      -0.137500
     26 C27          7.7380    -1.1340     0.6650 ca         1 D0Y      -0.117500
     27 C28          8.0950    -2.4570     0.5030 ca         1 D0Y       0.138000
     28 F29          9.3860    -2.8130     0.6470 f          1 D0Y      -0.180000
     29 C30          7.1580    -3.4250     0.2020 ca         1 D0Y      -0.117500
     30 C31          5.8350    -3.0490     0.0350 ca         1 D0Y      -0.137500
     31 C32          4.2220     0.7260    -1.1420 ca         1 D0Y      -0.163000
     32 C33          3.5630     1.8580    -1.5950 ca         1 D0Y      -0.076000
     33 C34          2.2120     2.0530    -1.3550 ca         1 D0Y      -0.136000
     34 O35         -1.9790    -0.2350     1.9770 o          1 D0Y      -0.477000
     35 H1          -2.6090    -2.1960    -0.4820 ha         1 D0Y       0.118000
     36 H2          -3.0860    -4.5930    -0.3680 ha         1 D0Y       0.116000
     37 H3          -5.3390    -5.3920     0.3060 ha         1 D0Y       0.119000
     38 H4          -7.1000    -3.7490     0.8670 ha         1 D0Y       0.129000
     39 H5          -0.2890    -0.2640    -1.9980 hc         1 D0Y       0.092700
     40 H6          -0.5190     1.3690    -2.5830 hc         1 D0Y       0.092700
     41 H7          -3.8540     0.4960    -2.3070 ho         1 D0Y       0.503000
     42 H8          -1.4020     3.3620    -1.9890 h4         1 D0Y       0.149000
     43 H9          -0.2440     5.2840     1.9530 h4         1 D0Y       0.155000
     44 H10          0.5340     2.7890     1.8600 ha         1 D0Y       0.153000
     45 H11          1.6080    -0.8050     0.3630 ha         1 D0Y       0.131000
     46 H12          3.4500    -2.1570     0.2480 hn         1 D0Y       0.495000
     47 H13          6.1330     0.2640     0.6910 ha         1 D0Y       0.123000
     48 H14          8.4830    -0.3910     0.9200 ha         1 D0Y       0.132000
     49 H15          7.4510    -4.4600     0.0850 ha         1 D0Y       0.132000
     50 H16          5.0990    -3.8020    -0.2170 ha         1 D0Y       0.123000
     51 H17          5.2690     0.5950    -1.3750 ha         1 D0Y       0.125000
     52 H18          4.1190     2.6000    -2.1540 ha         1 D0Y       0.115000
     53 H19          1.7230     2.9490    -1.7120 ha         1 D0Y       0.122000
     54 O1          -2.9200     0.6360    -2.5450 oh         1 D0Y      -0.506100
@<TRIPOS>BOND
     1     1     8 1   
     2     1    10 2   
     3     1    11 1   
     4     2     3 ar  
     5     2     4 ar  
     6     2    11 1   
     7     3     7 ar  
     8     3    12 1   
     9     4     5 ar  
    10     4    35 1   
    11     5     6 ar  
    12     5    36 1   
    13     6     7 ar  
    14     6    37 1   
    15     7    38 1   
    16     8    13 1   
    17     8    34 2   
    18     9    10 1   
    19     9    14 1   
    20     9    39 1   
    21     9    40 1   
    22    10    54 1   
    23    13    14 1   
    24    14    15 1   
    25    14    20 1   
    26    15    16 2   
    27    15    19 1   
    28    16    17 1   
    29    16    42 1   
    30    17    18 1   
    31    18    19 2   
    32    18    43 1   
    33    19    44 1   
    34    20    21 ar  
    35    20    33 ar  
    36    21    22 ar  
    37    21    45 1   
    38    22    23 1   
    39    22    31 ar  
    40    23    24 1   
    41    23    46 1   
    42    24    25 ar  
    43    24    30 ar  
    44    25    26 ar  
    45    25    47 1   
    46    26    27 ar  
    47    26    48 1   
    48    27    28 1   
    49    27    29 ar  
    50    29    30 ar  
    51    29    49 1   
    52    30    50 1   
    53    31    32 ar  
    54    31    51 1   
    55    32    33 ar  
    56    32    52 1   
    57    33    53 1   
    58    41    54 1   
@<TRIPOS>SUBSTRUCTURE
     1 D0Y         1 TEMP              0 ****  ****    0 ROOT
