@<TRIPOS>MOLECULE
D0Y
   54    58     1     0     0
SMALL
No Charge or Current Charge


@<TRIPOS>ATOM
      1 C4          -2.5770     0.1410     0.4030 ce         1 D0Y      -0.310600
      2 C6          -4.8230    -1.5410     0.4370 ca         1 D0Y      -0.104000
      3 C11         -6.1320    -1.6600    -0.0750 ca         1 D0Y       0.126000
      4 C7          -3.9750    -2.6660     0.4450 ca         1 D0Y      -0.098000
      5 C8          -4.4290    -3.8970    -0.0590 ca         1 D0Y      -0.097000
      6 C9          -5.7320    -4.0120    -0.5720 ca         1 D0Y      -0.105000
      7 C10         -6.5830    -2.8930    -0.5790 ca         1 D0Y      -0.091000
      8 C13         -1.4740     0.0680     1.4180 c          1 D0Y       0.700300
      9 C3          -0.8960     0.3880    -1.4110 c6         1 D0Y      -0.082200
     10 C2          -2.3080     0.3010    -0.9010 c2         1 D0Y       0.234900
     11 S5          -4.2300     0.0220     1.0830 ss         1 D0Y      -0.013600
     12 Cl12        -7.2200    -0.2740    -0.1110 cl         1 D0Y      -0.188000
     13 O14         -0.2140     0.2810     0.9180 os         1 D0Y      -0.447100
     14 C15          0.0070     0.9940    -0.3170 c6         1 D0Y       0.331600
     15 C16         -0.3110     2.4700    -0.0670 cc         1 D0Y      -0.142300
     16 C17         -1.1370     3.2860    -0.8080 cd         1 D0Y      -0.241000
     17 S18         -1.2040     4.9300    -0.1490 ss         1 D0Y       0.221000
     18 C19         -0.0810     4.4680     1.1370 cd         1 D0Y      -0.245000
     19 C20          0.2830     3.1530     1.0300 cc         1 D0Y      -0.095000
     20 C21          1.4900     0.8300    -0.7310 ca         1 D0Y      -0.049300
     21 C22          2.3060    -0.1940    -0.1930 ca         1 D0Y      -0.149000
     22 C23          3.6490    -0.3300    -0.5820 ca         1 D0Y       0.324000
     23 N24          4.4140    -1.3620    -0.0330 nu         1 D0Y      -0.994000
     24 C25          5.7860    -1.5470     0.1540 ca         1 D0Y       0.302000
     25 C26          6.6710    -0.4550     0.2550 ca         1 D0Y      -0.137500
     26 C27          8.0480    -0.6710     0.4610 ca         1 D0Y      -0.117500
     27 C28          8.5390    -1.9810     0.5740 ca         1 D0Y       0.138000
     28 F29          9.8590    -2.1900     0.7720 f          1 D0Y      -0.180000
     29 C30          7.6630    -3.0750     0.4910 ca         1 D0Y      -0.117500
     30 C31          6.2870    -2.8550     0.2870 ca         1 D0Y      -0.137500
     31 C32          4.1820     0.5420    -1.5460 ca         1 D0Y      -0.163000
     32 C33          3.3850     1.5560    -2.1000 ca         1 D0Y      -0.076000
     33 C34          2.0490     1.6990    -1.6940 ca         1 D0Y      -0.136000
     34 O35         -1.6580    -0.1930     2.5970 o          1 D0Y      -0.477000
     35 H1          -2.9670    -2.5900     0.8450 ha         1 D0Y       0.118000
     36 H2          -3.7700    -4.7630    -0.0510 ha         1 D0Y       0.116000
     37 H3          -6.0820    -4.9650    -0.9620 ha         1 D0Y       0.119000
     38 H4          -7.5910    -2.9790    -0.9760 ha         1 D0Y       0.129000
     39 H5          -0.5460    -0.6210    -1.6620 hc         1 D0Y       0.092700
     40 H6          -0.8390     0.9760    -2.3360 hc         1 D0Y       0.092700
     41 H7          -4.1080     0.2840    -1.3950 ho         1 D0Y       0.503000
     42 H8          -1.7150     3.0490    -1.6930 h4         1 D0Y       0.149000
     43 H9           0.2300     5.1950     1.8780 h4         1 D0Y       0.155000
     44 H10          0.9680     2.6600     1.7160 ha         1 D0Y       0.153000
     45 H11          1.9040    -0.8890     0.5370 ha         1 D0Y       0.131000
     46 H12          3.8510    -2.1440     0.3070 hn         1 D0Y       0.495000
     47 H13          6.2960     0.5620     0.1950 ha         1 D0Y       0.123000
     48 H14          8.7290     0.1720     0.5380 ha         1 D0Y       0.132000
     49 H15          8.0480    -4.0870     0.5860 ha         1 D0Y       0.132000
     50 H16          5.6120    -3.7040     0.2230 ha         1 D0Y       0.123000
     51 H17          5.2050     0.4240    -1.8870 ha         1 D0Y       0.125000
     52 H18          3.8010     2.2270    -2.8490 ha         1 D0Y       0.115000
     53 H19          1.4440     2.4880    -2.1370 ha         1 D0Y       0.122000
     54 O1          -3.2470     0.3760    -1.8520 oh         1 D0Y      -0.506100
@<TRIPOS>BOND
     1     1     8 1   
     2     1    10 2   
     3     1    11 1   
     4     2     3 ar  
     5     2     4 ar  
     6     2    11 1   
     7     3     7 ar  
     8     3    12 1   
     9     4     5 ar  
    10     4    35 1   
    11     5     6 ar  
    12     5    36 1   
    13     6     7 ar  
    14     6    37 1   
    15     7    38 1   
    16     8    13 1   
    17     8    34 2   
    18     9    10 1   
    19     9    14 1   
    20     9    39 1   
    21     9    40 1   
    22    10    54 1   
    23    13    14 1   
    24    14    15 1   
    25    14    20 1   
    26    15    16 2   
    27    15    19 1   
    28    16    17 1   
    29    16    42 1   
    30    17    18 1   
    31    18    19 2   
    32    18    43 1   
    33    19    44 1   
    34    20    21 ar  
    35    20    33 ar  
    36    21    22 ar  
    37    21    45 1   
    38    22    23 1   
    39    22    31 ar  
    40    23    24 1   
    41    23    46 1   
    42    24    25 ar  
    43    24    30 ar  
    44    25    26 ar  
    45    25    47 1   
    46    26    27 ar  
    47    26    48 1   
    48    27    28 1   
    49    27    29 ar  
    50    29    30 ar  
    51    29    49 1   
    52    30    50 1   
    53    31    32 ar  
    54    31    51 1   
    55    32    33 ar  
    56    32    52 1   
    57    33    53 1   
    58    41    54 1   
@<TRIPOS>SUBSTRUCTURE
     1 D0Y         1 TEMP              0 ****  ****    0 ROOT
