@<TRIPOS>MOLECULE
D0Z
   78    79     1     0     0
SMALL
bcc


@<TRIPOS>ATOM
      1 C01         -3.9600    -3.5060    -0.5040 c3         1 D0Z      -0.268300
      2 C06         -3.4580    -0.2350    -0.4820 c3         1 D0Z       0.126500
      3 C07         -3.5510     1.2760    -0.2570 c3         1 D0Z      -0.064400
      4 C08         -4.7450     1.9140    -0.9500 c3         1 D0Z      -0.072400
      5 C09         -4.8020     3.4200    -0.7260 c3         1 D0Z      -0.079400
      6 C10         -5.9870     4.0710    -1.4200 c3         1 D0Z       0.148800
      7 C12         -2.1690    -0.7730     0.1430 c          1 D0Z       0.617100
      8 C15          0.1990    -1.3020    -0.3550 c3         1 D0Z       0.105000
      9 C16          0.7290    -2.2580    -1.4270 c3         1 D0Z      -0.199700
     10 C17          2.0790    -2.9090    -1.0670 c3         1 D0Z      -0.026400
     11 C18          3.1230    -2.1310    -0.2460 c5         1 D0Z      -0.127000
     12 C19          4.4850    -2.8550    -0.3260 c5         1 D0Z      -0.071400
     13 C20          5.2840    -2.3140     0.8540 c5         1 D0Z      -0.086900
     14 C21          4.2430    -2.1600     1.9770 c5         1 D0Z      -0.086900
     15 C22          2.8620    -2.1620     1.2780 c5         1 D0Z      -0.071400
     16 C23          3.3310    -0.7300    -0.8220 c          1 D0Z       0.668100
     17 C26          3.7240     1.6360    -0.3330 c3         1 D0Z      -0.018300
     18 C27          3.4710     2.5420     0.8900 c3         1 D0Z      -0.037100
     19 C28          2.2300     2.1300     1.6310 ca         1 D0Z      -0.087300
     20 C29          0.9720     2.2370     1.0430 ca         1 D0Z      -0.106000
     21 C30         -0.1500     1.6890     1.6400 ca         1 D0Z      -0.192000
     22 C31         -0.0410     0.9940     2.8450 ca         1 D0Z       0.125100
     23 C32          1.1970     0.9320     3.4740 ca         1 D0Z      -0.192000
     24 C33          2.3120     1.4970     2.8680 ca         1 D0Z      -0.106000
     25 C35          5.1320     1.9240    -0.9050 c          1 D0Z       0.933600
     26 C38          0.6900    -1.6720    -2.8640 c          1 D0Z       0.950600
     27 N05         -4.6200    -0.8910     0.0980 n7         1 D0Z      -0.805100
     28 N11         -6.0240     5.5030    -1.1560 n8         1 D0Z      -0.889800
     29 N25          3.5280     0.2630     0.0530 ns         1 D0Z      -0.546900
     30 O24          3.3280    -0.5390    -2.0330 o          1 D0Z      -0.572100
     31 O34         -1.1050     0.3870     3.4200 oh         1 D0Z      -0.552100
     32 O39          1.2480    -2.3290    -3.7570 o          1 D0Z      -0.830300
     33 O40          0.0220    -0.6230    -3.0450 o          1 D0Z      -0.830300
     34 S02         -5.2270    -2.2590    -0.5890 s6         1 D0Z       1.227900
     35 H011        -4.3580    -4.4180    -0.9470 h1         1 D0Z       0.106367
     36 H012        -3.0880    -3.1830    -1.0710 h1         1 D0Z       0.106367
     37 H013        -3.6920    -3.6810     0.5350 h1         1 D0Z       0.106367
     38 H061        -3.4600    -0.4200    -1.5590 h1         1 D0Z       0.094700
     39 H072        -3.5880     1.4770     0.8190 hc         1 D0Z       0.057700
     40 H071        -2.6300     1.7320    -0.6300 hc         1 D0Z       0.057700
     41 H081        -4.6930     1.7020    -2.0230 hc         1 D0Z       0.046200
     42 H082        -5.6690     1.4550    -0.5900 hc         1 D0Z       0.046200
     43 H092        -4.8570     3.6330     0.3460 hc         1 D0Z       0.047200
     44 H091        -3.8740     3.8780    -1.0860 hc         1 D0Z       0.047200
     45 H101        -5.9520     3.8230    -2.4910 h1         1 D0Z       0.025200
     46 H102        -6.9110     3.6300    -1.0360 h1         1 D0Z       0.025200
     47 H152         0.1790    -1.7890     0.6190 h1         1 D0Z       0.051700
     48 H151         0.8340    -0.4180    -0.2630 h1         1 D0Z       0.051700
     49 H161         0.0100    -3.0890    -1.4650 hc         1 D0Z       0.015700
     50 H172         1.8880    -3.8280    -0.5060 hc         1 D0Z       0.038200
     51 H171         2.5350    -3.2270    -2.0050 hc         1 D0Z       0.038200
     52 H191         4.3090    -3.9290    -0.2070 hc         1 D0Z       0.039700
     53 H192         4.9740    -2.7140    -1.2920 hc         1 D0Z       0.039700
     54 H201         6.1080    -2.9700     1.1370 hc         1 D0Z       0.038450
     55 H202         5.7180    -1.3460     0.5950 hc         1 D0Z       0.038450
     56 H212         4.3060    -2.9880     2.6840 hc         1 D0Z       0.038450
     57 H211         4.4100    -1.2530     2.5640 hc         1 D0Z       0.038450
     58 H221         2.2100    -1.3610     1.6330 hc         1 D0Z       0.039700
     59 H222         2.3400    -3.0920     1.5130 hc         1 D0Z       0.039700
     60 H261         2.9820     1.8810    -1.0980 h1         1 D0Z       0.065700
     61 H271         4.3290     2.4860     1.5670 hc         1 D0Z       0.049200
     62 H272         3.4090     3.5730     0.5390 hc         1 D0Z       0.049200
     63 H291         0.8660     2.7370     0.0870 ha         1 D0Z       0.129500
     64 H301        -1.1150     1.7960     1.1600 ha         1 D0Z       0.121500
     65 H321         1.2960     0.4110     4.4190 ha         1 D0Z       0.121500
     66 H331         3.2760     1.4060     3.3560 ha         1 D0Z       0.129500
     67 H051        -4.5910    -0.9470     1.1120 hn         1 D0Z       0.441800
     68 H111        -5.2250     5.9440    -1.5950 hn         1 D0Z       0.330300
     69 H112        -6.8360     5.9090    -1.6030 hn         1 D0Z       0.330300
     70 H251         3.5730     0.0420     1.0310 hn         1 D0Z       0.291500
     71 H341        -1.6350    -0.0460     2.7230 ho         1 D0Z       0.462000
     72 N14         -1.1450    -0.8680    -0.6820 ns         1 D0Z      -0.510900
     73 O03         -5.4650    -1.9670    -1.9940 o          1 D0Z      -0.626300
     74 O04         -6.3370    -2.6720     0.2560 o          1 D0Z      -0.626300
     75 O36          5.2360     3.0110    -1.5090 o          1 D0Z      -0.839800
     76 H141        -1.2110    -0.5770    -1.6580 hn         1 D0Z       0.384500
     77 O13         -2.1490    -1.0610     1.3460 o          1 D0Z      -0.719100
     78 O37          6.0300     1.0950    -0.6860 o          1 D0Z      -0.839800
@<TRIPOS>BOND
     1     1    34 1   
     2     1    35 1   
     3     1    36 1   
     4     1    37 1   
     5     2     3 1   
     6     2     7 1   
     7     2    27 1   
     8     2    38 1   
     9     3     4 1   
    10     3    39 1   
    11     3    40 1   
    12     4     5 1   
    13     4    41 1   
    14     4    42 1   
    15     5     6 1   
    16     5    43 1   
    17     5    44 1   
    18     6    28 1   
    19     6    45 1   
    20     6    46 1   
    21     7    72 1   
    22     7    77 2   
    23     8     9 1   
    24     8    47 1   
    25     8    48 1   
    26     8    72 1   
    27     9    10 1   
    28     9    26 1   
    29     9    49 1   
    30    10    11 1   
    31    10    50 1   
    32    10    51 1   
    33    11    12 1   
    34    11    15 1   
    35    11    16 1   
    36    12    13 1   
    37    12    52 1   
    38    12    53 1   
    39    13    14 1   
    40    13    54 1   
    41    13    55 1   
    42    14    15 1   
    43    14    56 1   
    44    14    57 1   
    45    15    58 1   
    46    15    59 1   
    47    16    29 1   
    48    16    30 2   
    49    17    18 1   
    50    17    25 1   
    51    17    29 1   
    52    17    60 1   
    53    18    19 1   
    54    18    61 1   
    55    18    62 1   
    56    19    20 ar  
    57    19    24 ar  
    58    20    21 ar  
    59    20    63 1   
    60    21    22 ar  
    61    21    64 1   
    62    22    23 ar  
    63    22    31 1   
    64    23    24 ar  
    65    23    65 1   
    66    24    66 1   
    67    25    75 1   
    68    25    78 1   
    69    26    32 1   
    70    26    33 1   
    71    27    34 1   
    72    27    67 1   
    73    28    68 1   
    74    28    69 1   
    75    29    70 1   
    76    31    71 1   
    77    34    73 2   
    78    34    74 2   
    79    72    76 1   
@<TRIPOS>SUBSTRUCTURE
     1 D0Z         1 TEMP              0 ****  ****    0 ROOT
