@<TRIPOS>MOLECULE
D0Z
   78    79     1     0     0
SMALL
No Charge or Current Charge


@<TRIPOS>ATOM
      1 C01         -3.9260    -3.3750     0.8050 c3         1 D0Z      -0.379100
      2 C06         -3.7390    -0.1710    -0.6000 c3         1 D0Z       0.126500
      3 C07         -4.0370     1.3240    -0.3160 c3         1 D0Z      -0.064400
      4 C08         -5.2550     1.8850    -1.0910 c3         1 D0Z      -0.072400
      5 C09         -5.5000     3.3880    -0.8280 c3         1 D0Z      -0.079400
      6 C10         -6.7150     3.9400    -1.6000 c3         1 D0Z       0.148800
      7 C12         -2.3580    -0.5740     0.0140 c          1 D0Z       0.550100
      8 C15         -0.0620    -1.4570    -0.5130 c3         1 D0Z       0.105000
      9 C16          0.7950    -1.7610    -1.7610 c3         1 D0Z      -0.199700
     10 C17          2.1050    -2.5790    -1.5020 c3         1 D0Z      -0.026400
     11 C18          3.2060    -2.1050    -0.4900 c5         1 D0Z      -0.127000
     12 C19          4.3070    -3.2030    -0.3360 c5         1 D0Z      -0.071400
     13 C20          5.1200    -2.7110     0.8890 c5         1 D0Z      -0.086900
     14 C21          4.0260    -2.2030     1.8740 c5         1 D0Z      -0.086900
     15 C22          2.7280    -2.0630     1.0130 c5         1 D0Z      -0.071400
     16 C23          3.9440    -0.7720    -1.0280 c          1 D0Z       0.601100
     17 C26          4.3750     1.6090    -0.2130 c3         1 D0Z      -0.018300
     18 C27          4.0330     2.4300     1.0610 c3         1 D0Z      -0.037100
     19 C28          2.7130     2.0010     1.7000 ca         1 D0Z      -0.087300
     20 C29          1.5050     2.1440     0.9920 ca         1 D0Z      -0.088000
     21 C30          0.3070     1.6450     1.5290 ca         1 D0Z      -0.174000
     22 C31          0.3100     0.9990     2.7740 ca         1 D0Z       0.125100
     23 C32          1.5030     0.8850     3.5030 ca         1 D0Z      -0.174000
     24 C33          2.7040     1.3820     2.9670 ca         1 D0Z      -0.088000
     25 C35          5.8900     1.7310    -0.5850 c          1 D0Z       0.723000
     26 C38          0.9900    -0.5100    -2.6490 c          1 D0Z       0.740000
     27 N05         -4.8820    -1.0070    -0.1110 n7         1 D0Z      -0.860300
     28 N11         -6.9250     5.3740    -1.3290 n8         1 D0Z      -1.000200
     29 N25          3.9320     0.2050    -0.0540 ns         1 D0Z      -0.479900
     30 O24          4.4660    -0.5770    -2.1330 o          1 D0Z      -0.572100
     31 O34         -0.8350     0.4510     3.2600 oh         1 D0Z      -0.591100
     32 O39          0.5560    -0.5560    -3.7910 o          1 D0Z      -0.725000
     33 O40          1.4540     0.5020    -2.1530 o          1 D0Z      -0.725000
     34 S02         -4.9450    -2.6390    -0.4560 s6         1 D0Z       1.197100
     35 H011        -4.0070    -4.4600     0.6840 h1         1 D0Z       0.106367
     36 H012        -2.8920    -3.0530     0.6540 h1         1 D0Z       0.106367
     37 H013        -4.3080    -3.0650     1.7830 h1         1 D0Z       0.106367
     38 H061        -3.6460    -0.2720    -1.6910 h1         1 D0Z       0.094700
     39 H072        -4.1890     1.4680     0.7600 hc         1 D0Z       0.057700
     40 H071        -3.1510     1.9120    -0.5870 hc         1 D0Z       0.057700
     41 H081        -5.1010     1.7280    -2.1660 hc         1 D0Z       0.046200
     42 H082        -6.1560     1.3240    -0.8130 hc         1 D0Z       0.046200
     43 H092        -5.6540     3.5430     0.2470 hc         1 D0Z       0.047200
     44 H091        -4.6030     3.9530    -1.1100 hc         1 D0Z       0.047200
     45 H101        -6.5610     3.8050    -2.6800 h1         1 D0Z       0.025200
     46 H102        -7.6210     3.3910    -1.3070 h1         1 D0Z       0.025200
     47 H152        -0.1400    -2.3560     0.1130 h1         1 D0Z       0.051700
     48 H151         0.4080    -0.6610     0.0760 h1         1 D0Z       0.051700
     49 H161         0.2050    -2.4610    -2.3680 hc         1 D0Z       0.015700
     50 H172         1.7800    -3.5790    -1.1900 hc         1 D0Z       0.038200
     51 H171         2.5830    -2.7380    -2.4770 hc         1 D0Z       0.038200
     52 H191         3.8730    -4.1920    -0.1410 hc         1 D0Z       0.039700
     53 H192         4.9320    -3.3030    -1.2310 hc         1 D0Z       0.039700
     54 H201         5.7280    -3.5110     1.3260 hc         1 D0Z       0.038450
     55 H202         5.8120    -1.9060     0.6150 hc         1 D0Z       0.038450
     56 H212         3.8690    -2.9090     2.6980 hc         1 D0Z       0.038450
     57 H211         4.3190    -1.2520     2.3320 hc         1 D0Z       0.038450
     58 H221         2.1590    -1.1660     1.2770 hc         1 D0Z       0.039700
     59 H222         2.0610    -2.9080     1.2230 hc         1 D0Z       0.039700
     60 H261         3.8030     2.0290    -1.0490 h1         1 D0Z       0.065700
     61 H271         4.8480     2.3110     1.7860 hc         1 D0Z       0.049200
     62 H272         4.0080     3.4960     0.8060 hc         1 D0Z       0.049200
     63 H291         1.5000     2.6120     0.0100 ha         1 D0Z       0.111500
     64 H301        -0.6160     1.7430     0.9630 ha         1 D0Z       0.103500
     65 H321         1.5060     0.3860     4.4680 ha         1 D0Z       0.103500
     66 H331         3.6300     1.2570     3.5240 ha         1 D0Z       0.111500
     67 H051        -4.8420    -1.0270     0.9080 hn         1 D0Z       0.497000
     68 H111        -6.1140     5.9000    -1.6760 hn         1 D0Z       0.385500
     69 H112        -7.7010     5.7140    -1.9100 hn         1 D0Z       0.385500
     70 H251         3.4880    -0.0480     0.8180 hn         1 D0Z       0.291500
     71 H341        -1.3700     0.1290     2.4720 ho         1 D0Z       0.501000
     72 N14         -1.4130    -1.0290    -0.8780 ns         1 D0Z      -0.443900
     73 O03         -4.2860    -2.8130    -1.7510 o          1 D0Z      -0.555500
     74 O04         -6.3400    -3.0420    -0.2750 o          1 D0Z      -0.555500
     75 O36          6.1950     2.4360    -1.5380 o          1 D0Z      -0.734500
     76 H141        -1.6860    -1.0840    -1.8530 hn         1 D0Z       0.384500
     77 O13         -2.1330    -0.5110     1.2180 o          1 D0Z      -0.719100
     78 O37          6.7180     1.1220     0.0840 o          1 D0Z      -0.734500
@<TRIPOS>BOND
     1     1    34 1   
     2     1    35 1   
     3     1    36 1   
     4     1    37 1   
     5     2     3 1   
     6     2     7 1   
     7     2    27 1   
     8     2    38 1   
     9     3     4 1   
    10     3    39 1   
    11     3    40 1   
    12     4     5 1   
    13     4    41 1   
    14     4    42 1   
    15     5     6 1   
    16     5    43 1   
    17     5    44 1   
    18     6    28 1   
    19     6    45 1   
    20     6    46 1   
    21     7    72 1   
    22     7    77 2   
    23     8     9 1   
    24     8    47 1   
    25     8    48 1   
    26     8    72 1   
    27     9    10 1   
    28     9    26 1   
    29     9    49 1   
    30    10    11 1   
    31    10    50 1   
    32    10    51 1   
    33    11    12 1   
    34    11    15 1   
    35    11    16 1   
    36    12    13 1   
    37    12    52 1   
    38    12    53 1   
    39    13    14 1   
    40    13    54 1   
    41    13    55 1   
    42    14    15 1   
    43    14    56 1   
    44    14    57 1   
    45    15    58 1   
    46    15    59 1   
    47    16    29 1   
    48    16    30 2   
    49    17    18 1   
    50    17    25 1   
    51    17    29 1   
    52    17    60 1   
    53    18    19 1   
    54    18    61 1   
    55    18    62 1   
    56    19    20 ar  
    57    19    24 ar  
    58    20    21 ar  
    59    20    63 1   
    60    21    22 ar  
    61    21    64 1   
    62    22    23 ar  
    63    22    31 1   
    64    23    24 ar  
    65    23    65 1   
    66    24    66 1   
    67    25    75 1   
    68    25    78 1   
    69    26    32 1   
    70    26    33 1   
    71    27    34 1   
    72    27    67 1   
    73    28    68 1   
    74    28    69 1   
    75    29    70 1   
    76    31    71 1   
    77    34    73 2   
    78    34    74 2   
    79    72    76 1   
@<TRIPOS>SUBSTRUCTURE
     1 D0Z         1 TEMP              0 ****  ****    0 ROOT
