@<TRIPOS>MOLECULE
D10
   32    31     1     0     0
SMALL
bcc


@<TRIPOS>ATOM
      1 C1          -0.3070    -0.0110     5.7280 c3         1 D10      -0.088100
      2 C2           0.5180    -0.0110     4.4490 c3         1 D10      -0.074900
      3 C3          -0.3450     0.0030     3.1920 c3         1 D10      -0.075400
      4 C4           0.4650    -0.0080     1.9020 c3         1 D10      -0.074400
      5 C5          -0.4020     0.0070     0.6480 c3         1 D10      -0.074400
      6 C6           0.4060    -0.0020    -0.6430 c3         1 D10      -0.074400
      7 C7          -0.4620     0.0100    -1.8960 c3         1 D10      -0.074400
      8 C8           0.3470     0.0040    -3.1880 c3         1 D10      -0.075400
      9 C9          -0.5170     0.0190    -4.4430 c3         1 D10      -0.074900
     10 C10          0.3070     0.0050    -5.7240 c3         1 D10      -0.088100
     11 H11          0.3250    -0.0180     6.6170 hc         1 D10       0.031367
     12 H12         -0.9450     0.8740     5.7840 hc         1 D10       0.031367
     13 H13         -0.9560    -0.8880     5.7770 hc         1 D10       0.031367
     14 H21          1.1830     0.8580     4.4390 hc         1 D10       0.036700
     15 H22          1.1690    -0.8900     4.4310 hc         1 D10       0.036700
     16 H31         -1.0170    -0.8630     3.2060 hc         1 D10       0.036700
     17 H32         -0.9920     0.8870     3.2080 hc         1 D10       0.036700
     18 H41          1.1370     0.8580     1.8880 hc         1 D10       0.036700
     19 H42          1.1110    -0.8930     1.8850 hc         1 D10       0.036700
     20 H51         -1.0730    -0.8600     0.6620 hc         1 D10       0.036700
     21 H52         -1.0500     0.8910     0.6650 hc         1 D10       0.036700
     22 H61          1.0750     0.8660    -0.6580 hc         1 D10       0.036700
     23 H62          1.0550    -0.8850    -0.6600 hc         1 D10       0.036700
     24 H71         -1.1310    -0.8580    -1.8830 hc         1 D10       0.036700
     25 H72         -1.1120     0.8930    -1.8790 hc         1 D10       0.036700
     26 H81          1.0170     0.8720    -3.2010 hc         1 D10       0.036700
     27 H82          0.9960    -0.8780    -3.2060 hc         1 D10       0.036700
     28 H91         -1.1890    -0.8450    -4.4300 hc         1 D10       0.036700
     29 H92         -1.1610     0.9040    -4.4290 hc         1 D10       0.036700
     30 H101        -0.3260     0.0170    -6.6120 hc         1 D10       0.031367
     31 H102         0.9660     0.8750    -5.7760 hc         1 D10       0.031367
     32 H103         0.9350    -0.8860    -5.7770 hc         1 D10       0.031367
@<TRIPOS>BOND
     1     1     2 1   
     2     1    11 1   
     3     1    12 1   
     4     1    13 1   
     5     2     3 1   
     6     2    14 1   
     7     2    15 1   
     8     3     4 1   
     9     3    16 1   
    10     3    17 1   
    11     4     5 1   
    12     4    18 1   
    13     4    19 1   
    14     5     6 1   
    15     5    20 1   
    16     5    21 1   
    17     6     7 1   
    18     6    22 1   
    19     6    23 1   
    20     7     8 1   
    21     7    24 1   
    22     7    25 1   
    23     8     9 1   
    24     8    26 1   
    25     8    27 1   
    26     9    10 1   
    27     9    28 1   
    28     9    29 1   
    29    10    30 1   
    30    10    31 1   
    31    10    32 1   
@<TRIPOS>SUBSTRUCTURE
     1 D10         1 TEMP              0 ****  ****    0 ROOT
