@<TRIPOS>MOLECULE
D10
   32    31     1     0     0
SMALL
No Charge or Current Charge


@<TRIPOS>ATOM
      1 C1          -0.3080    -0.0060     5.8040 c3         1 D10      -0.088100
      2 C2           0.5160    -0.0140     4.5020 c3         1 D10      -0.074900
      3 C3          -0.3610    -0.0000     3.2310 c3         1 D10      -0.075400
      4 C4           0.4650    -0.0080     1.9260 c3         1 D10      -0.074400
      5 C5          -0.4120     0.0060     0.6550 c3         1 D10      -0.074400
      6 C6           0.4140    -0.0020    -0.6500 c3         1 D10      -0.074400
      7 C7          -0.4630     0.0110    -1.9210 c3         1 D10      -0.074400
      8 C8           0.3630     0.0030    -3.2260 c3         1 D10      -0.075400
      9 C9          -0.5140     0.0170    -4.4970 c3         1 D10      -0.074900
     10 C10          0.3100     0.0090    -5.7990 c3         1 D10      -0.088100
     11 H11          0.3560    -0.0170     6.6760 hc         1 D10       0.031367
     12 H12         -0.9360     0.8910     5.8610 hc         1 D10       0.031367
     13 H13         -0.9580    -0.8880     5.8570 hc         1 D10       0.031367
     14 H21          1.1800     0.8600     4.4950 hc         1 D10       0.036700
     15 H22          1.1570    -0.9040     4.4910 hc         1 D10       0.036700
     16 H31         -1.0250    -0.8740     3.2420 hc         1 D10       0.036700
     17 H32         -1.0030     0.8900     3.2460 hc         1 D10       0.036700
     18 H41          1.1290     0.8660     1.9150 hc         1 D10       0.036700
     19 H42          1.1070    -0.8980     1.9110 hc         1 D10       0.036700
     20 H51         -1.0760    -0.8680     0.6660 hc         1 D10       0.036700
     21 H52         -1.0540     0.8960     0.6690 hc         1 D10       0.036700
     22 H61          1.0770     0.8720    -0.6610 hc         1 D10       0.036700
     23 H62          1.0560    -0.8920    -0.6650 hc         1 D10       0.036700
     24 H71         -1.1270    -0.8630    -1.9100 hc         1 D10       0.036700
     25 H72         -1.1050     0.9010    -1.9060 hc         1 D10       0.036700
     26 H81          1.0270     0.8770    -3.2370 hc         1 D10       0.036700
     27 H82          1.0050    -0.8870    -3.2410 hc         1 D10       0.036700
     28 H91         -1.1780    -0.8570    -4.4900 hc         1 D10       0.036700
     29 H92         -1.1560     0.9060    -4.4870 hc         1 D10       0.036700
     30 H101        -0.3540     0.0190    -6.6720 hc         1 D10       0.031367
     31 H102         0.9600     0.8910    -5.8520 hc         1 D10       0.031367
     32 H103         0.9380    -0.8890    -5.8560 hc         1 D10       0.031367
@<TRIPOS>BOND
     1     1     2 1   
     2     1    11 1   
     3     1    12 1   
     4     1    13 1   
     5     2     3 1   
     6     2    14 1   
     7     2    15 1   
     8     3     4 1   
     9     3    16 1   
    10     3    17 1   
    11     4     5 1   
    12     4    18 1   
    13     4    19 1   
    14     5     6 1   
    15     5    20 1   
    16     5    21 1   
    17     6     7 1   
    18     6    22 1   
    19     6    23 1   
    20     7     8 1   
    21     7    24 1   
    22     7    25 1   
    23     8     9 1   
    24     8    26 1   
    25     8    27 1   
    26     9    10 1   
    27     9    28 1   
    28     9    29 1   
    29    10    30 1   
    30    10    31 1   
    31    10    32 1   
@<TRIPOS>SUBSTRUCTURE
     1 D10         1 TEMP              0 ****  ****    0 ROOT
