@<TRIPOS>MOLECULE
D11
   19    18     1     0     0
SMALL
bcc


@<TRIPOS>ATOM
      1 N           33.8290    29.2140    24.0210 n8         1 D11      -0.828800
      2 CA          33.5010    27.8500    24.4400 c3         1 D11       0.019500
      3 CB          32.0660    27.8100    24.9940 c3         1 D11       0.252100
      4 CG2         31.7190    26.4520    25.5980 c3         1 D11      -0.108100
      5 OG1         31.1690    28.1220    23.9620 os         1 D11      -0.575200
      6 P           29.7820    29.0640    24.2900 p5         1 D11       1.298900
      7 O1P         30.3110    30.3380    24.9480 o          1 D11      -0.945833
      8 O2P         28.9070    28.2120    25.2120 o          1 D11      -0.945833
      9 O3P         29.2320    29.2420    22.8800 o          1 D11      -0.945833
     10 C           34.5080    27.2830    25.4670 c          1 D11       0.892600
     11 O           34.7420    28.0030    26.4640 o          1 D11      -0.890300
     12 OXT         35.0100    26.1640    25.2300 o          1 D11      -0.890300
     13 H           33.9840    29.7590    24.8620 hn         1 D11       0.289300
     14 H2          34.7280    29.2020    23.5530 hn         1 D11       0.289300
     15 HA          33.5210    27.2150    23.5470 h1         1 D11       0.029700
     16 HB          32.0110    28.5600    25.7980 h1         1 D11       0.029700
     17 HG21        31.8710    25.6450    24.8770 hc         1 D11       0.010033
     18 HG22        32.3130    26.2260    26.4840 hc         1 D11       0.010033
     19 HG23        30.6700    26.4560    25.8910 hc         1 D11       0.010033
@<TRIPOS>BOND
     1     1     2 1   
     2     1    13 1   
     3     1    14 1   
     4     2     3 1   
     5     2    10 1   
     6     2    15 1   
     7     3     4 1   
     8     3     5 1   
     9     3    16 1   
    10     4    17 1   
    11     4    18 1   
    12     4    19 1   
    13     5     6 1   
    14     6     7 1   
    15     6     8 1   
    16     6     9 1   
    17    10    11 1   
    18    10    12 1   
@<TRIPOS>SUBSTRUCTURE
     1 D11         1 TEMP              0 ****  ****    0 ROOT
