@<TRIPOS>MOLECULE
D11
   19    18     1     0     0
SMALL
No Charge or Current Charge


@<TRIPOS>ATOM
      1 N           33.9190    29.1830    23.8450 n8         1 D11      -0.828800
      2 CA          33.5400    27.8450    24.4660 c3         1 D11       0.019500
      3 CB          32.0790    27.8100    25.0300 c3         1 D11       0.252100
      4 CG2         31.6480    26.4120    25.5530 c3         1 D11      -0.108100
      5 OG1         31.1650    28.2040    23.9850 os         1 D11      -0.575200
      6 P           29.8210    29.0370    24.3050 p5         1 D11       1.298900
      7 O1P         30.1570    30.3080    25.0040 o          1 D11      -0.945833
      8 O2P         28.8860    28.2350    25.1420 o          1 D11      -0.945833
      9 O3P         29.1460    29.3600    23.0180 o          1 D11      -0.945833
     10 C           34.5340    27.3110    25.5740 c          1 D11       0.892600
     11 O           34.6950    27.9670    26.5980 o          1 D11      -0.890300
     12 OXT         35.2240    26.3270    25.3260 o          1 D11      -0.890300
     13 H           33.9500    29.8900    24.5850 hn         1 D11       0.289300
     14 H2          34.8800    29.1310    23.4950 hn         1 D11       0.289300
     15 HA          33.5800    27.1140    23.6470 h1         1 D11       0.029700
     16 HB          32.0220    28.5140    25.8710 h1         1 D11       0.029700
     17 HG21        31.6990    25.6640    24.7530 hc         1 D11       0.010033
     18 HG22        32.3000    26.0800    26.3690 hc         1 D11       0.010033
     19 HG23        30.6280    26.4250    25.9490 hc         1 D11       0.010033
@<TRIPOS>BOND
     1     1     2 1   
     2     1    13 1   
     3     1    14 1   
     4     2     3 1   
     5     2    10 1   
     6     2    15 1   
     7     3     4 1   
     8     3     5 1   
     9     3    16 1   
    10     4    17 1   
    11     4    18 1   
    12     4    19 1   
    13     5     6 1   
    14     6     7 1   
    15     6     8 1   
    16     6     9 1   
    17    10    11 1   
    18    10    12 1   
@<TRIPOS>SUBSTRUCTURE
     1 D11         1 TEMP              0 ****  ****    0 ROOT
