@<TRIPOS>MOLECULE
D12
   38    37     1     0     0
SMALL
abcg2


@<TRIPOS>ATOM
      1 C1          -0.3400    -0.0480     6.9830 c3         1 D12      -0.088100
      2 C2           0.4930    -0.0320     5.7090 c3         1 D12      -0.074900
      3 C3          -0.3610    -0.0300     4.4470 c3         1 D12      -0.075400
      4 C4           0.4580    -0.0180     3.1620 c3         1 D12      -0.074400
      5 C5          -0.4010    -0.0170     1.9020 c3         1 D12      -0.074400
      6 C6           0.4150    -0.0050     0.6160 c3         1 D12      -0.074400
      7 C7          -0.4450    -0.0050    -0.6420 c3         1 D12      -0.074400
      8 C8           0.3720     0.0070    -1.9290 c3         1 D12      -0.074400
      9 C9          -0.4860     0.0110    -3.1880 c3         1 D12      -0.074400
     10 C10          0.3340     0.0110    -4.4720 c3         1 D12      -0.075400
     11 C11         -0.5180     0.0140    -5.7360 c3         1 D12      -0.074900
     12 C12          0.3180     0.0130    -7.0090 c3         1 D12      -0.088100
     13 H11         -0.9750    -0.9350     7.0260 hc         1 D12       0.031367
     14 H12          0.2850    -0.0460     7.8760 hc         1 D12       0.031367
     15 H13         -0.9930     0.8260     7.0350 hc         1 D12       0.031367
     16 H21          1.1450     0.8470     5.7060 hc         1 D12       0.036700
     17 H22          1.1580    -0.9010     5.6940 hc         1 D12       0.036700
     18 H31         -1.0160    -0.9090     4.4520 hc         1 D12       0.036700
     19 H32         -1.0260     0.8420     4.4620 hc         1 D12       0.036700
     20 H41          1.1120     0.8610     3.1550 hc         1 D12       0.036700
     21 H42          1.1220    -0.8890     3.1460 hc         1 D12       0.036700
     22 H51         -1.0550    -0.8960     1.9090 hc         1 D12       0.036700
     23 H52         -1.0660     0.8540     1.9180 hc         1 D12       0.036700
     24 H61          1.0690     0.8750     0.6080 hc         1 D12       0.036700
     25 H62          1.0810    -0.8760     0.6000 hc         1 D12       0.036700
     26 H71         -1.0970    -0.8850    -0.6350 hc         1 D12       0.036700
     27 H72         -1.1110     0.8650    -0.6270 hc         1 D12       0.036700
     28 H81          1.0270     0.8860    -1.9340 hc         1 D12       0.036700
     29 H82          1.0360    -0.8640    -1.9450 hc         1 D12       0.036700
     30 H91         -1.1470    -0.8640    -3.1790 hc         1 D12       0.036700
     31 H92         -1.1440     0.8870    -3.1770 hc         1 D12       0.036700
     32 H101         0.9970     0.8830    -4.4810 hc         1 D12       0.036700
     33 H102         0.9920    -0.8670    -4.4830 hc         1 D12       0.036700
     34 H111        -1.1780    -0.8600    -5.7290 hc         1 D12       0.036700
     35 H112        -1.1750     0.8890    -5.7280 hc         1 D12       0.036700
     36 H121        -0.3060     0.0150    -7.9030 hc         1 D12       0.031367
     37 H122         0.9640     0.8920    -7.0540 hc         1 D12       0.031367
     38 H123         0.9590    -0.8690    -7.0560 hc         1 D12       0.031367
@<TRIPOS>BOND
     1     1     2 1   
     2     1    13 1   
     3     1    14 1   
     4     1    15 1   
     5     2     3 1   
     6     2    16 1   
     7     2    17 1   
     8     3     4 1   
     9     3    18 1   
    10     3    19 1   
    11     4     5 1   
    12     4    20 1   
    13     4    21 1   
    14     5     6 1   
    15     5    22 1   
    16     5    23 1   
    17     6     7 1   
    18     6    24 1   
    19     6    25 1   
    20     7     8 1   
    21     7    26 1   
    22     7    27 1   
    23     8     9 1   
    24     8    28 1   
    25     8    29 1   
    26     9    10 1   
    27     9    30 1   
    28     9    31 1   
    29    10    11 1   
    30    10    32 1   
    31    10    33 1   
    32    11    12 1   
    33    11    34 1   
    34    11    35 1   
    35    12    36 1   
    36    12    37 1   
    37    12    38 1   
@<TRIPOS>SUBSTRUCTURE
     1 D12         1 TEMP              0 ****  ****    0 ROOT
