@<TRIPOS>MOLECULE
D12
   38    37     1     0     0
SMALL
No Charge or Current Charge


@<TRIPOS>ATOM
      1 C1          -0.3410    -0.0410     7.0740 c3         1 D12      -0.088100
      2 C2           0.4910    -0.0320     5.7770 c3         1 D12      -0.074900
      3 C3          -0.3780    -0.0300     4.5010 c3         1 D12      -0.075400
      4 C4           0.4560    -0.0210     3.2010 c3         1 D12      -0.074400
      5 C5          -0.4130    -0.0190     1.9250 c3         1 D12      -0.074400
      6 C6           0.4210    -0.0100     0.6250 c3         1 D12      -0.074400
      7 C7          -0.4480    -0.0080    -0.6510 c3         1 D12      -0.074400
      8 C8           0.3870     0.0010    -1.9510 c3         1 D12      -0.074400
      9 C9          -0.4830     0.0030    -3.2280 c3         1 D12      -0.074400
     10 C10          0.3520     0.0120    -4.5270 c3         1 D12      -0.075400
     11 C11         -0.5170     0.0140    -5.8040 c3         1 D12      -0.074900
     12 C12          0.3150     0.0230    -7.1000 c3         1 D12      -0.088100
     13 H11         -0.9770    -0.9330     7.1210 hc         1 D12       0.031367
     14 H12          0.3170    -0.0420     7.9510 hc         1 D12       0.031367
     15 H13         -0.9840     0.8470     7.1290 hc         1 D12       0.031367
     16 H21          1.1400     0.8520     5.7770 hc         1 D12       0.036700
     17 H22          1.1470    -0.9110     5.7690 hc         1 D12       0.036700
     18 H31         -1.0280    -0.9140     4.5060 hc         1 D12       0.036700
     19 H32         -1.0340     0.8500     4.5130 hc         1 D12       0.036700
     20 H41          1.1060     0.8630     3.1960 hc         1 D12       0.036700
     21 H42          1.1120    -0.9010     3.1880 hc         1 D12       0.036700
     22 H51         -1.0630    -0.9030     1.9300 hc         1 D12       0.036700
     23 H52         -1.0690     0.8610     1.9370 hc         1 D12       0.036700
     24 H61          1.0710     0.8750     0.6200 hc         1 D12       0.036700
     25 H62          1.0770    -0.8890     0.6120 hc         1 D12       0.036700
     26 H71         -1.0970    -0.8920    -0.6460 hc         1 D12       0.036700
     27 H72         -1.1040     0.8720    -0.6390 hc         1 D12       0.036700
     28 H81          1.0360     0.8860    -1.9560 hc         1 D12       0.036700
     29 H82          1.0430    -0.8780    -1.9630 hc         1 D12       0.036700
     30 H91         -1.1320    -0.8810    -3.2220 hc         1 D12       0.036700
     31 H92         -1.1390     0.8820    -3.2150 hc         1 D12       0.036700
     32 H101         1.0010     0.8970    -4.5320 hc         1 D12       0.036700
     33 H102         1.0080    -0.8670    -4.5400 hc         1 D12       0.036700
     34 H111        -1.1660    -0.8710    -5.8030 hc         1 D12       0.036700
     35 H112        -1.1730     0.8930    -5.7960 hc         1 D12       0.036700
     36 H121        -0.3430     0.0240    -7.9770 hc         1 D12       0.031367
     37 H122         0.9510     0.9150    -7.1480 hc         1 D12       0.031367
     38 H123         0.9580    -0.8640    -7.1550 hc         1 D12       0.031367
@<TRIPOS>BOND
     1     1     2 1   
     2     1    13 1   
     3     1    14 1   
     4     1    15 1   
     5     2     3 1   
     6     2    16 1   
     7     2    17 1   
     8     3     4 1   
     9     3    18 1   
    10     3    19 1   
    11     4     5 1   
    12     4    20 1   
    13     4    21 1   
    14     5     6 1   
    15     5    22 1   
    16     5    23 1   
    17     6     7 1   
    18     6    24 1   
    19     6    25 1   
    20     7     8 1   
    21     7    26 1   
    22     7    27 1   
    23     8     9 1   
    24     8    28 1   
    25     8    29 1   
    26     9    10 1   
    27     9    30 1   
    28     9    31 1   
    29    10    11 1   
    30    10    32 1   
    31    10    33 1   
    32    11    12 1   
    33    11    34 1   
    34    11    35 1   
    35    12    36 1   
    36    12    37 1   
    37    12    38 1   
@<TRIPOS>SUBSTRUCTURE
     1 D12         1 TEMP              0 ****  ****    0 ROOT
