@<TRIPOS>MOLECULE
D13
   43    46     1     0     0
SMALL
No Charge or Current Charge


@<TRIPOS>ATOM
      1 C1          -0.3280    -0.0990     2.1660 cc         1 D13       0.461000
      2 N2          -1.4260     0.1220     1.4560 nd         1 D13      -0.658000
      3 C3          -1.1320    -0.2220     0.1470 cd         1 D13       0.308500
      4 C4           0.1780    -0.6540     0.0850 cc         1 D13      -0.128000
      5 N5           0.6720    -0.5940     1.3650 na         1 D13      -0.278500
      6 C6          -2.1900    -0.2110    -0.8980 ca         1 D13      -0.070500
      7 C7          -2.1200    -0.9850    -2.0790 ca         1 D13      -0.147500
      8 C8          -3.1800    -0.9550    -3.0010 ca         1 D13       0.328400
      9 N9          -4.3030    -0.2270    -2.8140 nb         1 D13      -0.662000
     10 C10         -4.3970     0.4900    -1.6720 ca         1 D13       0.328400
     11 C11         -3.3850     0.5140    -0.6980 ca         1 D13      -0.147500
     12 C12          0.9190    -1.0240    -1.1160 ca         1 D13      -0.026000
     13 C13          0.9200    -0.1820    -2.2470 ca         1 D13      -0.055000
     14 C14          1.6520    -0.5350    -3.3920 ca         1 D13       0.192000
     15 I14          1.6230     0.7560    -5.1290 i          1 D13      -0.299000
     16 C15          2.4020    -1.7220    -3.4130 ca         1 D13      -0.071000
     17 C16          2.4240    -2.5550    -2.2810 ca         1 D13      -0.111000
     18 C17          1.6890    -2.2030    -1.1350 ca         1 D13      -0.092000
     19 C18         -0.1920     0.1380     3.6140 ca         1 D13      -0.093500
     20 C19         -1.2800     0.6530     4.3590 ca         1 D13      -0.103000
     21 C20         -1.1630     0.8820     5.7410 ca         1 D13      -0.048000
     22 C21          0.0430     0.6010     6.4010 ca         1 D13      -0.062500
     23 C22          1.1330     0.0900     5.6770 ca         1 D13      -0.048000
     24 C23          1.0170    -0.1400     4.2950 ca         1 D13      -0.103000
     25 S24          0.1810     0.8970     8.2040 sx         1 D13       0.238200
     26 O24          1.6060     1.3320     8.4980 o          1 D13      -0.512000
     27 C25          0.0060    -0.8700     8.7390 c3         1 D13      -0.060800
     28 HN5          1.6070    -0.8290     1.6680 hn         1 D13       0.360000
     29 H7          -1.2820    -1.6400    -2.2860 ha         1 D13       0.131000
     30 H8          -3.1350    -1.5470    -3.9150 h4         1 D13       0.018100
     31 H10         -5.3150     1.0600    -1.5320 h4         1 D13       0.018100
     32 H11         -3.5340     1.1110     0.1980 ha         1 D13       0.131000
     33 H13          0.3530     0.7450    -2.2410 ha         1 D13       0.141000
     34 H15          2.9670    -1.9900    -4.3020 ha         1 D13       0.131000
     35 H16          3.0090    -3.4730    -2.2920 ha         1 D13       0.122000
     36 H17          1.7090    -2.8540    -0.2630 ha         1 D13       0.117000
     37 H19         -2.2240     0.8770     3.8680 ha         1 D13       0.123500
     38 H20         -2.0110     1.2780     6.2970 ha         1 D13       0.131500
     39 H22          2.0700    -0.1300     6.1850 ha         1 D13       0.131500
     40 H23          1.8780    -0.5370     3.7630 ha         1 D13       0.123500
     41 H251         0.1290    -0.9170     9.8270 h1         1 D13       0.079700
     42 H252        -0.9920    -1.2230     8.4520 h1         1 D13       0.079700
     43 H253         0.7800    -1.4660     8.2420 h1         1 D13       0.079700
@<TRIPOS>BOND
     1     1     2 2   
     2     1     5 1   
     3     1    19 1   
     4     2     3 1   
     5     3     4 2   
     6     3     6 1   
     7     4     5 1   
     8     4    12 1   
     9     5    28 1   
    10     6     7 ar  
    11     6    11 ar  
    12     7     8 ar  
    13     7    29 1   
    14     8     9 ar  
    15     8    30 1   
    16     9    10 ar  
    17    10    11 ar  
    18    10    31 1   
    19    11    32 1   
    20    12    13 ar  
    21    12    18 ar  
    22    13    14 ar  
    23    13    33 1   
    24    14    15 1   
    25    14    16 ar  
    26    16    17 ar  
    27    16    34 1   
    28    17    18 ar  
    29    17    35 1   
    30    18    36 1   
    31    19    20 ar  
    32    19    24 ar  
    33    20    21 ar  
    34    20    37 1   
    35    21    22 ar  
    36    21    38 1   
    37    22    23 ar  
    38    22    25 1   
    39    23    24 ar  
    40    23    39 1   
    41    24    40 1   
    42    25    26 2   
    43    25    27 1   
    44    27    41 1   
    45    27    42 1   
    46    27    43 1   
@<TRIPOS>SUBSTRUCTURE
     1 D13         1 TEMP              0 ****  ****    0 ROOT
