@<TRIPOS>MOLECULE
D13
   43    46     1     0     0
SMALL
abcg2


@<TRIPOS>ATOM
      1 C1          -0.2600    -0.1380     2.1320 cc         1 D13       0.461000
      2 N2          -1.4070    -0.0210     1.5090 nd         1 D13      -0.658000
      3 C3          -1.1720    -0.3150     0.2010 cd         1 D13       0.308500
      4 C4           0.1680    -0.6050     0.0210 cc         1 D13      -0.128000
      5 N5           0.7150    -0.4960     1.2650 na         1 D13      -0.278500
      6 C6          -2.2670    -0.3260    -0.7670 ca         1 D13      -0.070500
      7 C7          -2.2780    -1.1640    -1.8820 ca         1 D13      -0.147500
      8 C8          -3.3590    -1.1200    -2.7460 ca         1 D13       0.328400
      9 N9          -4.4110    -0.3260    -2.5770 nb         1 D13      -0.662000
     10 C10         -4.4070     0.4600    -1.5050 ca         1 D13       0.328400
     11 C11         -3.3760     0.4970    -0.5810 ca         1 D13      -0.147500
     12 C12          0.9760    -0.9310    -1.1510 ca         1 D13      -0.026000
     13 C13          0.8200    -0.1990    -2.3300 ca         1 D13      -0.055000
     14 C14          1.5870    -0.5180    -3.4380 ca         1 D13       0.192000
     15 I14          1.3300     0.5830    -5.2120 i          1 D13      -0.299000
     16 C15          2.5260    -1.5400    -3.3980 ca         1 D13      -0.071000
     17 C16          2.6880    -2.2510    -2.2170 ca         1 D13      -0.111000
     18 C17          1.9200    -1.9560    -1.1020 ca         1 D13      -0.092000
     19 C18         -0.0550     0.0740     3.5600 ca         1 D13      -0.093500
     20 C19         -1.0710     0.6720     4.3100 ca         1 D13      -0.103000
     21 C20         -0.9100     0.8800     5.6670 ca         1 D13      -0.048000
     22 C21          0.2640     0.4730     6.2870 ca         1 D13      -0.062500
     23 C22          1.2880    -0.1070     5.5600 ca         1 D13      -0.048000
     24 C23          1.1230    -0.3100     4.1990 ca         1 D13      -0.103000
     25 S24          0.4830     0.7690     8.0420 sx         1 D13       0.238200
     26 O24          1.9070     0.4110     8.3820 o          1 D13      -0.512000
     27 C25         -0.5370    -0.6020     8.6290 c3         1 D13      -0.060800
     28 HN5          1.7010    -0.5740     1.4630 hn         1 D13       0.360000
     29 H7          -1.4740    -1.8600    -2.0760 ha         1 D13       0.131000
     30 H8          -3.3750    -1.7680    -3.6160 h4         1 D13       0.018100
     31 H10         -5.2720     1.1010    -1.3710 h4         1 D13       0.018100
     32 H11         -3.4340     1.1630     0.2690 ha         1 D13       0.131000
     33 H13          0.1110     0.6170    -2.3650 ha         1 D13       0.141000
     34 H15          3.1260    -1.7850    -4.2630 ha         1 D13       0.131000
     35 H16          3.4160    -3.0500    -2.1740 ha         1 D13       0.122000
     36 H17          2.0440    -2.5380    -0.1980 ha         1 D13       0.117000
     37 H19         -1.9840     0.9850     3.8230 ha         1 D13       0.123500
     38 H20         -1.7010     1.3610     6.2310 ha         1 D13       0.131500
     39 H22          2.2070    -0.4090     6.0450 ha         1 D13       0.131500
     40 H23          1.9280    -0.7840     3.6520 ha         1 D13       0.123500
     41 H251        -0.4800    -0.6040     9.7160 h1         1 D13       0.079700
     42 H252        -1.5690    -0.4490     8.3210 h1         1 D13       0.079700
     43 H253        -0.1510    -1.5380     8.2270 h1         1 D13       0.079700
@<TRIPOS>BOND
     1     1     2 2   
     2     1     5 1   
     3     1    19 1   
     4     2     3 1   
     5     3     4 2   
     6     3     6 1   
     7     4     5 1   
     8     4    12 1   
     9     5    28 1   
    10     6     7 ar  
    11     6    11 ar  
    12     7     8 ar  
    13     7    29 1   
    14     8     9 ar  
    15     8    30 1   
    16     9    10 ar  
    17    10    11 ar  
    18    10    31 1   
    19    11    32 1   
    20    12    13 ar  
    21    12    18 ar  
    22    13    14 ar  
    23    13    33 1   
    24    14    15 1   
    25    14    16 ar  
    26    16    17 ar  
    27    16    34 1   
    28    17    18 ar  
    29    17    35 1   
    30    18    36 1   
    31    19    20 ar  
    32    19    24 ar  
    33    20    21 ar  
    34    20    37 1   
    35    21    22 ar  
    36    21    38 1   
    37    22    23 ar  
    38    22    25 1   
    39    23    24 ar  
    40    23    39 1   
    41    24    40 1   
    42    25    26 2   
    43    25    27 1   
    44    27    41 1   
    45    27    42 1   
    46    27    43 1   
@<TRIPOS>SUBSTRUCTURE
     1 D13         1 TEMP              0 ****  ****    0 ROOT
