@<TRIPOS>MOLECULE
D15
   54    57     1     0     0
SMALL
abcg2


@<TRIPOS>ATOM
      1 CAO         39.7780    25.9120   -39.1650 ca         1 D15      -0.098000
      2 CAY         40.6810    26.9530   -39.3040 ca         1 D15       0.121000
      3 CL1         40.7910    28.1480   -38.0510 cl         1 D15      -0.205000
      4 CAI         41.4980    27.0630   -40.4190 ca         1 D15      -0.097000
      5 CAH         41.3950    26.0990   -41.4100 ca         1 D15      -0.099000
      6 CAL         40.4950    25.0490   -41.2850 ca         1 D15      -0.087000
      7 CBB         39.6770    24.9500   -40.1660 ca         1 D15      -0.071300
      8 CBF         38.7160    23.7900   -40.0150 c3         1 D15      -0.102400
      9 CAR         37.2920    24.2270   -39.6700 c3         1 D15      -0.076400
     10 CAQ         36.6380    24.9940   -40.8100 c3         1 D15       0.149800
     11 NAA         35.2730    25.3540   -40.4580 n8         1 D15      -1.000200
     12 CAX         39.3670    22.7940   -39.0530 c          1 D15       0.610100
     13 OAC         40.2980    22.1030   -39.4270 o          1 D15      -0.574100
     14 NAT         38.8730    22.7800   -37.7950 ns         1 D15      -0.140000
     15 CAZ         39.2910    22.0200   -36.6910 ca         1 D15      -0.071000
     16 CAP         40.3270    21.1080   -36.7200 ca         1 D15      -0.034000
     17 CBE         40.6230    20.4220   -35.5330 ca         1 D15      -0.195900
     18 CAM         38.5670    22.2470   -35.4910 ca         1 D15      -0.110000
     19 CAN         38.8450    21.5820   -34.3260 ca         1 D15      -0.112000
     20 CBD         39.8900    20.6520   -34.3610 ca         1 D15      -0.052200
     21 NAV         40.3930    19.8160   -33.4240 na         1 D15      -0.055400
     22 NAS         41.3950    19.0760   -33.8960 nc         1 D15      -0.557100
     23 CBC         41.5530    19.4140   -35.1510 cd         1 D15       0.423500
     24 NAU         42.4880    18.7470   -35.9380 ns         1 D15      -0.405400
     25 CAW         43.3710    19.3790   -36.7540 c          1 D15       0.619700
     26 OAB         43.4350    20.5930   -36.8350 o          1 D15      -0.563100
     27 CBA         44.2630    18.4860   -37.5480 ca         1 D15      -0.150600
     28 CAJ         45.4930    18.9890   -37.9680 ca         1 D15      -0.069000
     29 CAF         46.3510    18.2010   -38.7170 ca         1 D15      -0.120000
     30 CAE         45.9800    16.9100   -39.0720 ca         1 D15      -0.088000
     31 CAG         44.7480    16.4090   -38.6730 ca         1 D15      -0.120000
     32 CAK         43.8920    17.1920   -37.9120 ca         1 D15      -0.069000
     33 HAO         39.1520    25.8650   -38.2830 ha         1 D15       0.124000
     34 HAI         42.1960    27.8830   -40.5140 ha         1 D15       0.130000
     35 HAH         42.0240    26.1700   -42.2880 ha         1 D15       0.120000
     36 HAL         40.4240    24.3060   -42.0690 ha         1 D15       0.123000
     37 HBF         38.6810    23.2620   -40.9720 hc         1 D15       0.085700
     38 HAR1        36.6790    23.3480   -39.4520 hc         1 D15       0.051200
     39 HAR2        37.2830    24.8550   -38.7720 hc         1 D15       0.051200
     40 HAQ1        37.2620    25.8560   -41.0810 h1         1 D15       0.034700
     41 HAQ2        36.6060    24.3490   -41.6920 h1         1 D15       0.034700
     42 HAA1        35.2890    26.0720   -39.7440 hn         1 D15       0.395000
     43 HAA2        34.8190    25.7760   -41.2580 hn         1 D15       0.395000
     44 HAT         38.0800    23.3750   -37.6140 hn         1 D15       0.151000
     45 HAP         40.8910    20.9230   -37.6170 ha         1 D15       0.166000
     46 HAM         37.7620    22.9730   -35.4950 ha         1 D15       0.108000
     47 HAN         38.2750    21.7700   -33.4270 ha         1 D15       0.121000
     48 HAV         40.0960    19.7010   -32.4690 hn         1 D15       0.379000
     49 HAU         42.6250    17.7680   -35.7380 hn         1 D15       0.333500
     50 HAJ         45.7820    19.9960   -37.6980 ha         1 D15       0.125500
     51 HAK         42.9260    16.7910   -37.6340 ha         1 D15       0.125500
     52 HAF         47.3090    18.5940   -39.0290 ha         1 D15       0.117000
     53 HAE         46.6480    16.2970   -39.6630 ha         1 D15       0.115000
     54 HAG         44.4490    15.4100   -38.9600 ha         1 D15       0.117000
@<TRIPOS>BOND
     1     1     2 ar  
     2     1     7 ar  
     3     1    33 1   
     4     2     3 1   
     5     2     4 ar  
     6     4     5 ar  
     7     4    34 1   
     8     5     6 ar  
     9     5    35 1   
    10     6     7 ar  
    11     6    36 1   
    12     7     8 1   
    13     8     9 1   
    14     8    12 1   
    15     8    37 1   
    16     9    10 1   
    17     9    38 1   
    18     9    39 1   
    19    10    11 1   
    20    10    40 1   
    21    10    41 1   
    22    11    42 1   
    23    11    43 1   
    24    12    13 2   
    25    12    14 1   
    26    14    15 1   
    27    14    44 1   
    28    15    16 ar  
    29    15    18 ar  
    30    16    17 ar  
    31    16    45 1   
    32    17    20 ar  
    33    17    23 1   
    34    18    19 ar  
    35    18    46 1   
    36    19    20 ar  
    37    19    47 1   
    38    20    21 1   
    39    21    22 1   
    40    21    48 1   
    41    22    23 2   
    42    23    24 1   
    43    24    25 1   
    44    24    49 1   
    45    25    26 2   
    46    25    27 1   
    47    27    28 ar  
    48    27    32 ar  
    49    28    29 ar  
    50    28    50 1   
    51    29    30 ar  
    52    29    52 1   
    53    30    31 ar  
    54    30    53 1   
    55    31    32 ar  
    56    31    54 1   
    57    32    51 1   
@<TRIPOS>SUBSTRUCTURE
     1 D15         1 TEMP              0 ****  ****    0 ROOT
