@<TRIPOS>MOLECULE
D15
   54    57     1     0     0
SMALL
No Charge or Current Charge


@<TRIPOS>ATOM
      1 CAO         38.8240    26.1590   -38.9130 ca         1 D15      -0.098000
      2 CAY         39.2430    27.4610   -38.5930 ca         1 D15       0.121000
      3 Cl1         38.3220    28.4180   -37.4410 cl         1 D15      -0.205000
      4 CAI         40.3950    27.9990   -39.1860 ca         1 D15      -0.097000
      5 CAH         41.1330    27.2300   -40.1010 ca         1 D15      -0.099000
      6 CAL         40.7150    25.9270   -40.4230 ca         1 D15      -0.087000
      7 CBB         39.5550    25.3780   -39.8370 ca         1 D15      -0.071300
      8 CBF         39.1390    23.9450   -40.2040 c3         1 D15      -0.102400
      9 CAR         37.6030    23.7190   -40.3230 c3         1 D15      -0.076400
     10 CAQ         36.9280    24.6280   -41.3720 c3         1 D15       0.149800
     11 NAA         35.4860    24.3390   -41.4860 n8         1 D15      -1.000200
     12 CAX         39.7900    22.9210   -39.2510 c          1 D15       0.610100
     13 OAC         40.5340    22.0400   -39.6700 o          1 D15      -0.574100
     14 NAT         39.4910    23.1160   -37.9070 ns         1 D15      -0.140000
     15 CAZ         39.8890    22.4330   -36.7230 ca         1 D15      -0.071000
     16 CAP         40.7580    21.3100   -36.7210 ca         1 D15      -0.034000
     17 CBE         41.0930    20.7330   -35.4820 ca         1 D15      -0.195900
     18 CAM         39.3620    22.9090   -35.4960 ca         1 D15      -0.110000
     19 CAN         39.6690    22.2660   -34.2790 ca         1 D15      -0.112000
     20 CBD         40.5370    21.1710   -34.3200 ca         1 D15      -0.052200
     21 NAV         40.9180    20.3230   -33.2980 na         1 D15      -0.055400
     22 NAS         41.7250    19.2860   -33.7990 nc         1 D15      -0.557100
     23 CBC         41.8720    19.5660   -35.0980 cd         1 D15       0.423500
     24 NAU         42.6200    18.7640   -35.9170 ns         1 D15      -0.405400
     25 CAW         43.3630    19.1120   -37.0190 c          1 D15       0.619700
     26 OAB         43.5120    20.2750   -37.3660 o          1 D15      -0.563100
     27 CBA         44.0290    17.9710   -37.7650 ca         1 D15      -0.150600
     28 CAJ         44.9030    18.2630   -38.8390 ca         1 D15      -0.069000
     29 CAF         45.5370    17.2320   -39.5540 ca         1 D15      -0.120000
     30 CAE         45.3070    15.8910   -39.2100 ca         1 D15      -0.088000
     31 CAG         44.4390    15.5830   -38.1520 ca         1 D15      -0.120000
     32 CAK         43.8020    16.6100   -37.4330 ca         1 D15      -0.069000
     33 HAO         37.9310    25.7690   -38.4340 ha         1 D15       0.124000
     34 HAI         40.7160    29.0070   -38.9350 ha         1 D15       0.130000
     35 HAH         42.0280    27.6430   -40.5610 ha         1 D15       0.120000
     36 HAL         41.2990    25.3430   -41.1310 ha         1 D15       0.123000
     37 HBF         39.5470    23.7170   -41.1970 hc         1 D15       0.085700
     38 HAR1        37.4280    22.6730   -40.6050 hc         1 D15       0.051200
     39 HAR2        37.1200    23.8580   -39.3480 hc         1 D15       0.051200
     40 HAQ1        37.0550    25.6840   -41.0940 h1         1 D15       0.034700
     41 HAQ2        37.3970    24.4700   -42.3530 h1         1 D15       0.034700
     42 HAA1        35.0260    24.5740   -40.5980 hn         1 D15       0.395000
     43 HAA2        35.0640    24.9950   -42.1550 hn         1 D15       0.395000
     44 HAT         38.8750    23.9000   -37.7370 hn         1 D15       0.151000
     45 HAP         41.1440    20.8900   -37.6420 ha         1 D15       0.166000
     46 HAM         38.6890    23.7640   -35.4880 ha         1 D15       0.108000
     47 HAN         39.2310    22.6040   -33.3420 ha         1 D15       0.121000
     48 HAV         40.6400    20.3820   -32.3180 hn         1 D15       0.379000
     49 HAU         42.7620    17.8170   -35.6080 hn         1 D15       0.333500
     50 HAJ         45.0980    19.2950   -39.1250 ha         1 D15       0.125500
     51 HAK         43.1290    16.3260   -36.6280 ha         1 D15       0.125500
     52 HAF         46.2080    17.4740   -40.3750 ha         1 D15       0.117000
     53 HAE         45.7980    15.0940   -39.7640 ha         1 D15       0.115000
     54 HAG         44.2560    14.5440   -37.8880 ha         1 D15       0.117000
@<TRIPOS>BOND
     1     1     2 ar  
     2     1     7 ar  
     3     1    33 1   
     4     2     3 1   
     5     2     4 ar  
     6     4     5 ar  
     7     4    34 1   
     8     5     6 ar  
     9     5    35 1   
    10     6     7 ar  
    11     6    36 1   
    12     7     8 1   
    13     8     9 1   
    14     8    12 1   
    15     8    37 1   
    16     9    10 1   
    17     9    38 1   
    18     9    39 1   
    19    10    11 1   
    20    10    40 1   
    21    10    41 1   
    22    11    42 1   
    23    11    43 1   
    24    12    13 2   
    25    12    14 1   
    26    14    15 1   
    27    14    44 1   
    28    15    16 ar  
    29    15    18 ar  
    30    16    17 ar  
    31    16    45 1   
    32    17    20 ar  
    33    17    23 1   
    34    18    19 ar  
    35    18    46 1   
    36    19    20 ar  
    37    19    47 1   
    38    20    21 1   
    39    21    22 1   
    40    21    48 1   
    41    22    23 2   
    42    23    24 1   
    43    24    25 1   
    44    24    49 1   
    45    25    26 2   
    46    25    27 1   
    47    27    28 ar  
    48    27    32 ar  
    49    28    29 ar  
    50    28    50 1   
    51    29    30 ar  
    52    29    52 1   
    53    30    31 ar  
    54    30    53 1   
    55    31    32 ar  
    56    31    54 1   
    57    32    51 1   
@<TRIPOS>SUBSTRUCTURE
     1 D15         1 TEMP              0 ****  ****    0 ROOT
