@<TRIPOS>MOLECULE
D16
   52    54     1     0     0
SMALL
abcg2


@<TRIPOS>ATOM
      1 N1          -9.7090   -15.2740    45.6030 na         1 D16      -0.906200
      2 C2          -9.4200   -16.4480    45.0080 cc         1 D16       0.675200
      3 CM2        -10.4250   -17.5440    45.1560 c3         1 D16      -0.140400
      4 N3          -8.3140   -16.6660    44.3460 nd         1 D16      -0.712100
      5 C4          -7.3570   -15.6740    44.2320 c          1 D16       0.713100
      6 O4          -6.3120   -15.8880    43.6130 o          1 D16      -0.528100
      7 C4A         -7.6330   -14.3730    44.8660 ca         1 D16      -0.207600
      8 C5          -6.7360   -13.3020    44.7900 ca         1 D16       0.002000
      9 C6          -7.0320   -12.0860    45.3740 ca         1 D16      -0.143300
     10 C7          -8.2510   -11.9390    46.0570 ca         1 D16      -0.050000
     11 C8          -9.1500   -12.9790    46.1550 ca         1 D16      -0.171000
     12 C8A         -8.8390   -14.2030    45.5530 ca         1 D16       0.301000
     13 C9          -6.0910   -10.8970    45.3020 c3         1 D16       0.286100
     14 N10         -4.9570   -11.0550    44.4160 nh         1 D16      -0.823400
     15 C11         -6.0080   -10.7340    40.7410 cc         1 D16      -0.224600
     16 S13         -6.6560   -10.5790    42.3550 ss         1 D16       0.190000
     17 C14         -5.1220   -11.0070    43.0680 cc         1 D16       0.157000
     18 C15         -4.1740   -11.2690    42.0870 cd         1 D16      -0.227000
     19 C16         -4.6870   -11.1050    40.7840 cd         1 D16      -0.081000
     20 O           -8.1240   -10.2440    39.8390 o          1 D16      -0.664100
     21 N           -6.3950   -10.5480    38.3870 ns         1 D16      -0.420900
     22 CA          -7.1710   -10.5460    37.1580 c3         1 D16      -0.041300
     23 CB          -7.1080    -9.1840    36.4450 c3         1 D16      -0.049400
     24 CG          -7.6980    -8.0350    37.2560 c3         1 D16      -0.192400
     25 CD          -7.5450    -6.6510    36.6010 c          1 D16       0.705000
     26 OE1         -8.5220    -5.8600    36.6990 o          1 D16      -0.768500
     27 OE2         -6.4480    -6.3900    36.0400 o          1 D16      -0.768500
     28 CT          -6.6290   -11.6450    36.2090 c          1 D16       0.707000
     29 O1          -5.4410   -12.0180    36.3860 o          1 D16      -0.746000
     30 O2          -7.4160   -12.0430    35.3170 o          1 D16      -0.746000
     31 CP1         -3.6870   -11.5320    44.9420 c3         1 D16       0.226100
     32 HN1        -10.5860   -15.1700    46.0930 hn         1 D16       0.497000
     33 HM21       -10.4450   -18.1480    44.2510 hc         1 D16       0.062033
     34 HM22       -10.1310   -18.1900    45.9880 hc         1 D16       0.062033
     35 HM23       -11.4210   -17.1530    45.3620 hc         1 D16       0.062033
     36 H5          -5.8140   -13.4470    44.2450 ha         1 D16       0.156000
     37 H7          -8.4930   -10.9850    46.5100 ha         1 D16       0.112000
     38 H8         -10.0900   -12.8600    46.6800 ha         1 D16       0.109000
     39 H91         -6.6620   -10.0130    44.9990 h1         1 D16       0.056200
     40 H92         -5.7060   -10.6790    46.2990 h1         1 D16       0.056200
     41 H15         -3.1600   -11.5690    42.3030 ha         1 D16       0.116000
     42 H16         -4.0860   -11.2690    39.8990 ha         1 D16       0.148000
     43 HN          -5.4550   -10.8960    38.2630 hn         1 D16       0.324500
     44 HA          -8.2060   -10.7760    37.4090 h1         1 D16       0.057700
     45 HB1         -6.0640    -8.9630    36.2100 hc         1 D16       0.046700
     46 HB2         -7.6390    -9.2780    35.4940 hc         1 D16       0.046700
     47 HG1         -8.7550    -8.2180    37.4590 hc         1 D16       0.020200
     48 HG2         -7.1950    -7.9860    38.2270 hc         1 D16       0.020200
     49 HP11        -3.4990   -12.5750    44.6640 h1         1 D16       0.029367
     50 HP12        -2.8640   -10.9220    44.5640 h1         1 D16       0.029367
     51 HP13        -3.7070   -11.4560    46.0260 h1         1 D16       0.029367
     52 C           -6.9240   -10.4920    39.6260 c          1 D16       0.609700
@<TRIPOS>BOND
     1     1     2 1   
     2     1    12 1   
     3     1    32 1   
     4     2     3 1   
     5     2     4 2   
     6     3    33 1   
     7     3    34 1   
     8     3    35 1   
     9     4     5 1   
    10     5     6 2   
    11     5     7 1   
    12     7     8 ar  
    13     7    12 ar  
    14     8     9 ar  
    15     8    36 1   
    16     9    10 ar  
    17     9    13 1   
    18    10    11 ar  
    19    10    37 1   
    20    11    12 ar  
    21    11    38 1   
    22    13    14 1   
    23    13    39 1   
    24    13    40 1   
    25    14    17 1   
    26    14    31 1   
    27    15    16 1   
    28    15    19 2   
    29    15    52 1   
    30    16    17 1   
    31    17    18 2   
    32    18    19 1   
    33    18    41 1   
    34    19    42 1   
    35    20    52 2   
    36    21    22 1   
    37    21    43 1   
    38    21    52 1   
    39    22    23 1   
    40    22    28 1   
    41    22    44 1   
    42    23    24 1   
    43    23    45 1   
    44    23    46 1   
    45    24    25 1   
    46    24    47 1   
    47    24    48 1   
    48    25    26 1   
    49    25    27 1   
    50    28    29 1   
    51    28    30 1   
    52    31    49 1   
    53    31    50 1   
    54    31    51 1   
@<TRIPOS>SUBSTRUCTURE
     1 D16         1 TEMP              0 ****  ****    0 ROOT
