@<TRIPOS>MOLECULE
D16
   52    54     1     0     0
SMALL
No Charge or Current Charge


@<TRIPOS>ATOM
      1 N1          -9.7940   -15.2850    45.4530 na         1 D16      -0.906200
      2 C2          -9.4540   -16.6230    45.3970 cc         1 D16       0.675200
      3 CM2        -10.5190   -17.6720    45.4210 c3         1 D16      -0.140400
      4 N3          -8.1790   -16.9310    45.3240 nd         1 D16      -0.712100
      5 C4          -7.1390   -16.0090    45.2970 c          1 D16       0.713100
      6 O4          -5.9850   -16.4040    45.2300 o          1 D16      -0.528100
      7 C4A         -7.4940   -14.5840    45.3540 ca         1 D16      -0.207600
      8 C5          -6.5270   -13.5580    45.3290 ca         1 D16       0.002000
      9 C6          -6.9310   -12.2100    45.3830 ca         1 D16      -0.143300
     10 C7          -8.3040   -11.9060    45.4660 ca         1 D16      -0.050000
     11 C8          -9.2550   -12.9420    45.4880 ca         1 D16      -0.171000
     12 C8A         -8.8430   -14.2810    45.4310 ca         1 D16       0.301000
     13 C9          -5.8950   -11.0890    45.3520 c3         1 D16       0.286100
     14 N10         -4.8760   -11.2450    44.2830 nh         1 D16      -0.823400
     15 C11         -6.2760   -10.7770    40.6720 cc         1 D16      -0.224600
     16 S13         -6.8410   -10.7470    42.3380 ss         1 D16       0.190000
     17 C14         -5.2110   -11.1080    42.9390 cc         1 D16       0.157000
     18 C15         -4.3310   -11.2310    41.8910 cd         1 D16      -0.227000
     19 C16         -4.9240   -11.0450    40.6110 cd         1 D16      -0.081000
     20 O           -8.3810   -10.2990    39.6660 o          1 D16      -0.664100
     21 N           -6.5790   -10.5990    38.2970 ns         1 D16      -0.420900
     22 CA          -7.2410   -10.3650    36.9900 c3         1 D16      -0.041300
     23 CB          -7.0330    -8.9150    36.4760 c3         1 D16      -0.049400
     24 CG          -7.6320    -7.8100    37.3850 c3         1 D16      -0.192400
     25 CD          -7.4710    -6.4310    36.7200 c          1 D16       0.705000
     26 OE1         -8.3520    -6.0450    35.9680 o          1 D16      -0.768500
     27 OE2         -6.4460    -5.8020    36.9330 o          1 D16      -0.768500
     28 CT          -6.7370   -11.4080    35.9460 c          1 D16       0.707000
     29 O1          -5.5330   -11.6130    35.8590 o          1 D16      -0.746000
     30 O2          -7.5700   -12.0520    35.3230 o          1 D16      -0.746000
     31 CP1         -3.4880   -11.5470    44.7120 c3         1 D16       0.226100
     32 HN1        -10.7770   -15.0460    45.5110 hn         1 D16       0.497000
     33 HM21       -10.0860   -18.6770    45.3670 hc         1 D16       0.062033
     34 HM22       -11.1040   -17.6050    46.3450 hc         1 D16       0.062033
     35 HM23       -11.1990   -17.5500    44.5710 hc         1 D16       0.062033
     36 H5          -5.4690   -13.8040    45.2640 ha         1 D16       0.156000
     37 H7          -8.6370   -10.8710    45.5100 ha         1 D16       0.112000
     38 H8         -10.3120   -12.6980    45.5500 ha         1 D16       0.109000
     39 H91         -6.4100   -10.1270    45.2210 h1         1 D16       0.056200
     40 H92         -5.4160   -11.0430    46.3400 h1         1 D16       0.056200
     41 H15         -3.2770   -11.4490    42.0150 ha         1 D16       0.116000
     42 H16         -4.3500   -11.1130    39.6910 ha         1 D16       0.148000
     43 HN          -5.5950   -10.8330    38.2880 hn         1 D16       0.324500
     44 HA          -8.3180   -10.5360    37.1120 h1         1 D16       0.057700
     45 HB1         -5.9600    -8.7290    36.3400 hc         1 D16       0.046700
     46 HB2         -7.4900    -8.8350    35.4810 hc         1 D16       0.046700
     47 HG1         -8.6950    -8.0580    37.4980 hc         1 D16       0.020200
     48 HG2         -7.0670    -7.8460    38.3240 hc         1 D16       0.020200
     49 HP11        -3.1330   -12.4690    44.2330 h1         1 D16       0.029367
     50 HP12        -2.8150   -10.7260    44.4290 h1         1 D16       0.029367
     51 HP13        -3.4210   -11.6840    45.7990 h1         1 D16       0.029367
     52 C           -7.1870   -10.5330    39.5330 c          1 D16       0.609700
@<TRIPOS>BOND
     1     1     2 1   
     2     1    12 1   
     3     1    32 1   
     4     2     3 1   
     5     2     4 2   
     6     3    33 1   
     7     3    34 1   
     8     3    35 1   
     9     4     5 1   
    10     5     6 2   
    11     5     7 1   
    12     7     8 ar  
    13     7    12 ar  
    14     8     9 ar  
    15     8    36 1   
    16     9    10 ar  
    17     9    13 1   
    18    10    11 ar  
    19    10    37 1   
    20    11    12 ar  
    21    11    38 1   
    22    13    14 1   
    23    13    39 1   
    24    13    40 1   
    25    14    17 1   
    26    14    31 1   
    27    15    16 1   
    28    15    19 2   
    29    15    52 1   
    30    16    17 1   
    31    17    18 2   
    32    18    19 1   
    33    18    41 1   
    34    19    42 1   
    35    20    52 2   
    36    21    22 1   
    37    21    43 1   
    38    21    52 1   
    39    22    23 1   
    40    22    28 1   
    41    22    44 1   
    42    23    24 1   
    43    23    45 1   
    44    23    46 1   
    45    24    25 1   
    46    24    47 1   
    47    24    48 1   
    48    25    26 1   
    49    25    27 1   
    50    28    29 1   
    51    28    30 1   
    52    31    49 1   
    53    31    50 1   
    54    31    51 1   
@<TRIPOS>SUBSTRUCTURE
     1 D16         1 TEMP              0 ****  ****    0 ROOT
