@<TRIPOS>MOLECULE
D17
   53    55     1     0     0
SMALL
No Charge or Current Charge


@<TRIPOS>ATOM
      1 OE1         -8.5570     2.7610    -1.9760 o          1 D17      -0.758500
      2 CD          -8.3970     2.8460    -0.7680 c          1 D17       0.713000
      3 OE2         -9.0520     3.5890    -0.0530 o          1 D17      -0.758500
      4 CG          -7.3610     1.9200    -0.1020 c3         1 D17      -0.202400
      5 CB          -8.0280     0.5800     0.3070 c3         1 D17      -0.055400
      6 CA          -7.1050    -0.3930     1.0880 c3         1 D17      -0.052300
      7 C           -7.8960    -1.6420     1.5850 c          1 D17       0.719000
      8 OXT         -8.1200    -1.7450     2.7820 o          1 D17      -0.740000
      9 O           -8.1800    -2.5140     0.7730 o          1 D17      -0.740000
     10 N           -5.9330    -0.8230     0.2850 ns         1 D17      -0.413900
     11 CAU         -4.6650    -0.2760     0.3490 c          1 D17       0.592700
     12 OBC         -4.3920     0.6200     1.1400 o          1 D17      -0.636100
     13 CAT         -3.6310    -0.8480    -0.6040 ca         1 D17      -0.106600
     14 CAQ         -2.3090    -0.3450    -0.5730 ca         1 D17      -0.048000
     15 CAS         -3.9420    -1.8730    -1.5310 ca         1 D17      -0.067000
     16 CAR         -2.9540    -2.3750    -2.3950 ca         1 D17      -0.132000
     17 CAP         -1.6480    -1.8670    -2.3520 ca         1 D17      -0.105000
     18 CAO         -1.3190    -0.8470    -1.4410 ca         1 D17      -0.163300
     19 CAN          0.0950    -0.2920    -1.3900 c3         1 D17       0.275100
     20 NAY          0.8680    -1.0380    -0.3960 nu         1 D17      -0.937200
     21 CAA          2.2150    -0.8860    -0.0860 ca         1 D17       0.402000
     22 CAC          2.8430    -1.8600     0.6990 ca         1 D17      -0.227500
     23 CAE          4.2030    -1.7380     1.0320 ca         1 D17       0.000500
     24 CAB          2.9500     0.2220    -0.5340 ca         1 D17      -0.227500
     25 CAG          4.3100     0.3500    -0.2060 ca         1 D17       0.000500
     26 CAF          4.9480    -0.6370     0.5700 ca         1 D17      -0.214800
     27 CAH          6.3870    -0.5210     0.9440 ce         1 D17       0.058800
     28 CAI          7.4660    -0.1510     0.1690 cd         1 D17      -0.234600
     29 SBG          7.3480     0.2880    -1.5370 ss         1 D17      -0.029200
     30 CAL          9.1020     0.5420    -1.6730 cs         1 D17       0.337000
     31 SBH          9.9510     1.0110    -3.0330 s          1 D17      -0.485400
     32 NAX          9.6270     0.2730    -0.4460 ns         1 D17      -0.398500
     33 CAK          8.8660    -0.1100     0.6170 c          1 D17       0.578200
     34 OBE          9.2960    -0.3670     1.7300 o          1 D17      -0.509000
     35 HG1C        -6.5680     1.6630    -0.8150 hc         1 D17       0.008700
     36 HG2C        -6.9910     2.3660     0.8300 hc         1 D17       0.008700
     37 HB1C        -8.9020     0.8010     0.9320 hc         1 D17       0.052200
     38 HB2C        -8.4070     0.0770    -0.5920 hc         1 D17       0.052200
     39 HA          -6.7420     0.1240     1.9850 h1         1 D17       0.058700
     40 H           -6.0710    -1.5810    -0.3700 hn         1 D17       0.297500
     41 HAQ         -2.0450     0.4410     0.1320 ha         1 D17       0.139000
     42 HAS         -4.9420    -2.2930    -1.5980 ha         1 D17       0.138000
     43 HAR         -3.2040    -3.1630    -3.1030 ha         1 D17       0.107000
     44 HAP         -0.8920    -2.2650    -3.0250 ha         1 D17       0.094000
     45 HAN1         0.5630    -0.3810    -2.3800 h1         1 D17       0.047700
     46 HAN2         0.0630     0.7760    -1.1280 h1         1 D17       0.047700
     47 HAY          0.4220    -1.8740    -0.0200 hn         1 D17       0.512000
     48 HAC          2.2810    -2.7180     1.0560 ha         1 D17       0.124000
     49 HAB          2.4760     0.9940    -1.1310 ha         1 D17       0.124000
     50 HAE          4.6780    -2.5040     1.6420 ha         1 D17       0.108500
     51 HAG          4.8590     1.2270    -0.5430 ha         1 D17       0.108500
     52 HAH1         6.6240    -0.8180     1.9680 ha         1 D17       0.188000
     53 HAX         10.6240     0.3540    -0.3070 hn         1 D17       0.350500
@<TRIPOS>BOND
     1     1     2 1   
     2     2     3 1   
     3     2     4 1   
     4     4     5 1   
     5     4    35 1   
     6     4    36 1   
     7     5     6 1   
     8     5    37 1   
     9     5    38 1   
    10     6     7 1   
    11     6    10 1   
    12     6    39 1   
    13     7     8 1   
    14     7     9 1   
    15    10    11 1   
    16    10    40 1   
    17    11    12 2   
    18    11    13 1   
    19    13    14 ar  
    20    13    15 ar  
    21    14    18 ar  
    22    14    41 1   
    23    15    16 ar  
    24    15    42 1   
    25    16    17 ar  
    26    16    43 1   
    27    17    18 ar  
    28    17    44 1   
    29    18    19 1   
    30    19    20 1   
    31    19    45 1   
    32    19    46 1   
    33    20    21 1   
    34    20    47 1   
    35    21    22 ar  
    36    21    24 ar  
    37    22    23 ar  
    38    22    48 1   
    39    23    26 ar  
    40    23    50 1   
    41    24    25 ar  
    42    24    49 1   
    43    25    26 ar  
    44    25    51 1   
    45    26    27 1   
    46    27    28 2   
    47    27    52 1   
    48    28    29 1   
    49    28    33 1   
    50    29    30 1   
    51    30    31 2   
    52    30    32 1   
    53    32    33 1   
    54    32    53 1   
    55    33    34 2   
@<TRIPOS>SUBSTRUCTURE
     1 D17         1 TEMP              0 ****  ****    0 ROOT
