@<TRIPOS>MOLECULE
D17
   53    55     1     0     0
SMALL
bcc


@<TRIPOS>ATOM
      1 OE1        -10.4820    -0.7350    -0.5240 o          1 D17      -0.863800
      2 CD          -9.8960     0.2530    -1.0090 c          1 D17       0.923600
      3 OE2        -10.3190     0.9860    -1.9270 o          1 D17      -0.863800
      4 CG          -8.5110     0.6180    -0.4450 c3         1 D17      -0.202400
      5 CB          -8.0460    -0.2040     0.7470 c3         1 D17      -0.055400
      6 CA          -6.6770     0.2200     1.2800 c3         1 D17      -0.052300
      7 C           -6.3370    -0.5290     2.5950 c          1 D17       0.929600
      8 OXT         -7.0550    -0.2280     3.5700 o          1 D17      -0.845300
      9 O           -5.4150    -1.3610     2.5680 o          1 D17      -0.845300
     10 N           -5.6760     0.0210     0.2560 ns         1 D17      -0.480900
     11 CAU         -4.4780     0.6140     0.2940 c          1 D17       0.659700
     12 OBC         -4.1720     1.4580     1.1300 o          1 D17      -0.636100
     13 CAT         -3.5070     0.2180    -0.7770 ca         1 D17      -0.106600
     14 CAQ         -2.1530     0.4570    -0.5540 ca         1 D17      -0.066000
     15 CAS         -3.9030    -0.3380    -1.9910 ca         1 D17      -0.085000
     16 CAR         -2.9580    -0.6650    -2.9530 ca         1 D17      -0.150000
     17 CAP         -1.6120    -0.4370    -2.7120 ca         1 D17      -0.123000
     18 CAO         -1.2010     0.1330    -1.5100 ca         1 D17      -0.163300
     19 CAN          0.2580     0.3670    -1.2410 c3         1 D17       0.275100
     20 NAY          0.8690    -0.8450    -0.7380 nu         1 D17      -0.743600
     21 CAA          2.1820    -0.9780    -0.4740 ca         1 D17       0.263600
     22 CAC          2.6810    -2.1910     0.0480 ca         1 D17      -0.245500
     23 CAE          4.0190    -2.3420     0.3000 ca         1 D17      -0.017500
     24 CAB          3.1010     0.0660    -0.7110 ca         1 D17      -0.245500
     25 CAG          4.4410    -0.1050    -0.4520 ca         1 D17      -0.017500
     26 CAF          4.9500    -1.3110     0.0590 ca         1 D17      -0.214800
     27 CAH          6.3270    -1.5760     0.3500 ce         1 D17       0.108800
     28 CAI          7.4360    -0.8120     0.2380 cd         1 D17      -0.234600
     29 SBG          7.5840     0.8440    -0.3230 ss         1 D17      -0.029200
     30 CAL          9.3070     0.8520    -0.0910 cs         1 D17       0.404000
     31 SBH         10.2600     2.1430    -0.4160 s          1 D17      -0.485400
     32 NAX          9.7090    -0.3450     0.3860 ns         1 D17      -0.532500
     33 CAK          8.7580    -1.3320     0.6030 c          1 D17       0.720700
     34 OBE          9.0280    -2.4330     1.0270 o          1 D17      -0.584500
     35 HG1C        -7.7870     0.5430    -1.2640 hc         1 D17       0.008700
     36 HG2C        -8.5170     1.6790    -0.1740 hc         1 D17       0.008700
     37 HB1C        -8.7630    -0.1120     1.5630 hc         1 D17       0.052200
     38 HB2C        -8.0200    -1.2670     0.4850 hc         1 D17       0.052200
     39 HA          -6.7150     1.2900     1.5050 h1         1 D17       0.058700
     40 H           -5.7830    -0.7970    -0.3230 hn         1 D17       0.297500
     41 HAQ         -1.8370     0.9040     0.3810 ha         1 D17       0.157000
     42 HAS         -4.9500    -0.4960    -2.2180 ha         1 D17       0.156000
     43 HAR         -3.2760    -1.0880    -3.8960 ha         1 D17       0.125000
     44 HAP         -0.8780    -0.6880    -3.4690 ha         1 D17       0.112000
     45 HAN1         0.7560     0.6750    -2.1660 h1         1 D17       0.047700
     46 HAN2         0.3790     1.1880    -0.5250 h1         1 D17       0.047700
     47 HAY          0.2580    -1.6050    -0.4880 hn         1 D17       0.456800
     48 HAC          1.9970    -3.0070     0.2470 ha         1 D17       0.142000
     49 HAB          2.7630     1.0160    -1.0990 ha         1 D17       0.142000
     50 HAE          4.3720    -3.2850     0.6990 ha         1 D17       0.126500
     51 HAG          5.0880     0.7360    -0.6590 ha         1 D17       0.126500
     52 HAH1         6.5220    -2.5750     0.7300 ha         1 D17       0.138000
     53 HAX         10.6880    -0.5160     0.5770 hn         1 D17       0.350500
@<TRIPOS>BOND
     1     1     2 1   
     2     2     3 1   
     3     2     4 1   
     4     4     5 1   
     5     4    35 1   
     6     4    36 1   
     7     5     6 1   
     8     5    37 1   
     9     5    38 1   
    10     6     7 1   
    11     6    10 1   
    12     6    39 1   
    13     7     8 1   
    14     7     9 1   
    15    10    11 1   
    16    10    40 1   
    17    11    12 2   
    18    11    13 1   
    19    13    14 ar  
    20    13    15 ar  
    21    14    18 ar  
    22    14    41 1   
    23    15    16 ar  
    24    15    42 1   
    25    16    17 ar  
    26    16    43 1   
    27    17    18 ar  
    28    17    44 1   
    29    18    19 1   
    30    19    20 1   
    31    19    45 1   
    32    19    46 1   
    33    20    21 1   
    34    20    47 1   
    35    21    22 ar  
    36    21    24 ar  
    37    22    23 ar  
    38    22    48 1   
    39    23    26 ar  
    40    23    50 1   
    41    24    25 ar  
    42    24    49 1   
    43    25    26 ar  
    44    25    51 1   
    45    26    27 1   
    46    27    28 2   
    47    27    52 1   
    48    28    29 1   
    49    28    33 1   
    50    29    30 1   
    51    30    31 2   
    52    30    32 1   
    53    32    33 1   
    54    32    53 1   
    55    33    34 2   
@<TRIPOS>SUBSTRUCTURE
     1 D17         1 TEMP              0 ****  ****    0 ROOT
