@<TRIPOS>MOLECULE
D18
   61    63     1     0     0
SMALL
abcg2


@<TRIPOS>ATOM
      1 C10         -3.7750    -0.1470     7.3450 c3         1 D18      -0.100100
      2 C9          -1.8010    -1.0130     8.6310 c3         1 D18      -0.100100
      3 C8          -2.2780    -0.0060     7.5850 c3         1 D18       0.182500
      4 N2          -1.5930    -0.1020     6.3000 n7         1 D18      -0.898900
      5 C7          -0.1630     0.1600     6.3070 c3         1 D18       0.453500
      6 N1           0.1780     1.5030     6.7270 n8         1 D18      -0.997700
      7 C1           1.5450    -0.3520     2.3620 ca         1 D18      -0.116000
      8 C2           0.2150     0.0480     2.5100 ca         1 D18      -0.095000
      9 C3          -0.3430     0.1900     3.7720 ca         1 D18      -0.095000
     10 C4           0.4020    -0.0600     4.9190 ca         1 D18      -0.109300
     11 C5           1.7280    -0.4600     4.7690 ca         1 D18      -0.095000
     12 C6           2.2930    -0.6080     3.5160 ca         1 D18      -0.095000
     13 CA           2.1570    -0.5020     1.0540 cc         1 D18       0.194000
     14 CB           3.4060    -0.8670     0.6470 cd         1 D18      -0.169500
     15 C21          3.4010    -0.8150    -0.7700 cd         1 D18      -0.169500
     16 C20          2.1480    -0.4210    -1.1390 cc         1 D18       0.194000
     17 O1           1.3990    -0.2350    -0.0310 os         1 D18      -0.235000
     18 C14          1.5250    -0.1790    -2.4270 ca         1 D18      -0.116000
     19 C15          0.1650     0.1280    -2.5420 ca         1 D18      -0.095000
     20 C16         -0.4020     0.3620    -3.7830 ca         1 D18      -0.095000
     21 C17          0.3610     0.2930    -4.9480 ca         1 D18      -0.109300
     22 C18          1.7120    -0.0180    -4.8310 ca         1 D18      -0.095000
     23 C19          2.2890    -0.2490    -3.5940 ca         1 D18      -0.095000
     24 C13         -0.2500     0.6010    -6.3020 c3         1 D18       0.453500
     25 N4          -0.5810     2.0080    -6.4630 n8         1 D18      -0.997700
     26 N3          -1.4390    -0.2080    -6.4830 n7         1 D18      -0.898900
     27 C12         -1.8220    -0.5070    -7.8620 c3         1 D18       0.182500
     28 C11         -2.7740    -1.6970    -7.8460 c3         1 D18      -0.100100
     29 CAX         -2.4860     0.6800    -8.5480 c3         1 D18      -0.100100
     30 H101        -4.0150    -1.1400     6.9570 hc         1 D18       0.038950
     31 H102        -4.3340    -0.0110     8.2710 hc         1 D18       0.038950
     32 H103        -4.1270     0.5900     6.6230 hc         1 D18       0.038950
     33 H91         -2.0030    -2.0350     8.3020 hc         1 D18       0.038950
     34 H92         -0.7310    -0.9310     8.8290 hc         1 D18       0.038950
     35 H93         -2.3190    -0.8610     9.5800 hc         1 D18       0.038950
     36 H8          -2.0990     1.0030     7.9710 h1         1 D18       0.031200
     37 HN2         -1.7620    -1.0220     5.9060 hn         1 D18       0.423000
     38 H7           0.3800    -0.5090     6.9910 h2         1 D18       0.038200
     39 HN11        -0.3810     2.1750     6.2120 hn         1 D18       0.404000
     40 HN12        -0.0310     1.6370     7.7080 hn         1 D18       0.404000
     41 H3          -1.3780     0.4960     3.8610 ha         1 D18       0.121750
     42 H5           2.3290    -0.6590     5.6480 ha         1 D18       0.121750
     43 H6           3.3260    -0.9220     3.4370 ha         1 D18       0.120250
     44 HB           4.2370    -1.1420     1.2760 ha         1 D18       0.141500
     45 H16          4.2240    -1.0460    -1.4270 ha         1 D18       0.141500
     46 H2          -0.4620     0.1870    -1.6620 ha         1 D18       0.120250
     47 H13         -1.4580     0.5960    -3.8420 ha         1 D18       0.121750
     48 H14          2.3270    -0.0780    -5.7210 ha         1 D18       0.121750
     49 H15          3.3450    -0.4780    -3.5390 ha         1 D18       0.120250
     50 H12          0.5130     0.3770    -7.0650 h2         1 D18       0.038200
     51 HN'1        -1.2630     2.2750    -5.7630 hn         1 D18       0.404000
     52 HN'2         0.2440     2.5700    -6.2900 hn         1 D18       0.404000
     53 H11         -1.2920    -1.0880    -6.0060 hn         1 D18       0.423000
     54 H4          -0.9340    -0.7910    -8.4520 h1         1 D18       0.031200
     55 H9'1        -3.0620    -1.9740    -8.8600 hc         1 D18       0.038950
     56 H9'2        -2.3180    -2.5740    -7.3810 hc         1 D18       0.038950
     57 H9'3        -3.6830    -1.4530    -7.2920 hc         1 D18       0.038950
     58 H1'1        -3.3770     0.9840    -7.9940 hc         1 D18       0.038950
     59 H1'2        -1.8210     1.5370    -8.6080 hc         1 D18       0.038950
     60 H1'3        -2.7930     0.4060    -9.5590 hc         1 D18       0.038950
     61 H17         -0.3970     0.2520     1.6410 ha         1 D18       0.120250
@<TRIPOS>BOND
     1     1     3 1   
     2     1    30 1   
     3     1    31 1   
     4     1    32 1   
     5     2     3 1   
     6     2    33 1   
     7     2    34 1   
     8     2    35 1   
     9     3     4 1   
    10     3    36 1   
    11     4     5 1   
    12     4    37 1   
    13     5     6 1   
    14     5    10 1   
    15     5    38 1   
    16     6    39 1   
    17     6    40 1   
    18     7     8 ar  
    19     7    12 ar  
    20     7    13 1   
    21     8     9 ar  
    22     8    61 1   
    23     9    10 ar  
    24     9    41 1   
    25    10    11 ar  
    26    11    12 ar  
    27    11    42 1   
    28    12    43 1   
    29    13    14 2   
    30    13    17 1   
    31    14    15 1   
    32    14    44 1   
    33    15    16 2   
    34    15    45 1   
    35    16    17 1   
    36    16    18 1   
    37    18    19 ar  
    38    18    23 ar  
    39    19    20 ar  
    40    19    46 1   
    41    20    21 ar  
    42    20    47 1   
    43    21    22 ar  
    44    21    24 1   
    45    22    23 ar  
    46    22    48 1   
    47    23    49 1   
    48    24    25 1   
    49    24    26 1   
    50    24    50 1   
    51    25    51 1   
    52    25    52 1   
    53    26    27 1   
    54    26    53 1   
    55    27    28 1   
    56    27    29 1   
    57    27    54 1   
    58    28    55 1   
    59    28    56 1   
    60    28    57 1   
    61    29    58 1   
    62    29    59 1   
    63    29    60 1   
@<TRIPOS>SUBSTRUCTURE
     1 D18         1 TEMP              0 ****  ****    0 ROOT
