@<TRIPOS>MOLECULE
D18
   61    63     1     0     0
SMALL
No Charge or Current Charge


@<TRIPOS>ATOM
      1 C10         -3.0450    -1.0230     7.9390 c3         1 D18      -0.100100
      2 C9          -1.3190    -1.9690     6.3160 c3         1 D18      -0.100100
      3 C8          -1.6010    -0.9160     7.4110 c3         1 D18       0.182500
      4 N2          -1.3940     0.4540     6.9060 n7         1 D18      -0.898900
      5 C7          -0.0480     0.8410     6.6330 c3         1 D18       0.453500
      6 N1          -0.2310     2.2090     6.9270 n8         1 D18      -0.997700
      7 C1           1.2080     0.1010     2.5080 ca         1 D18      -0.116000
      8 C2          -0.0030     0.7730     2.7740 ca         1 D18      -0.095000
      9 C3          -0.4160     1.0210     4.0950 ca         1 D18      -0.095000
     10 C4           0.3770     0.6000     5.1840 ca         1 D18      -0.109300
     11 C5           1.5890    -0.0660     4.9210 ca         1 D18      -0.095000
     12 C6           2.0020    -0.3140     3.6000 ca         1 D18      -0.095000
     13 CA           1.6160    -0.1480     1.1190 cc         1 D18       0.194000
     14 CB           2.7200    -0.8520     0.7080 cd         1 D18      -0.169500
     15 C21          2.6980    -0.8340    -0.7060 cd         1 D18      -0.169500
     16 C20          1.5820    -0.1200    -1.0640 cc         1 D18       0.194000
     17 O1           0.8920     0.3130     0.0440 os         1 D18      -0.235000
     18 C14          1.1320     0.1640    -2.4340 ca         1 D18      -0.116000
     19 C15         -0.0820     0.8510    -2.6450 ca         1 D18      -0.095000
     20 C16         -0.5350     1.1340    -3.9450 ca         1 D18      -0.095000
     21 C17          0.2220     0.7370    -5.0690 ca         1 D18      -0.109300
     22 C18          1.4340     0.0510    -4.8610 ca         1 D18      -0.095000
     23 C19          1.8860    -0.2320    -3.5610 ca         1 D18      -0.095000
     24 C13         -0.2460     1.0140    -6.4970 c3         1 D18       0.453500
     25 N4          -0.5930     2.3640    -6.7300 n8         1 D18      -0.997700
     26 N3          -1.5310     0.4570    -6.7700 n7         1 D18      -0.898900
     27 C12         -1.5480    -0.9880    -7.0610 c3         1 D18       0.182500
     28 C11         -2.9870    -1.5060    -6.8720 c3         1 D18      -0.100100
     29 CAX         -1.0250    -1.2660    -8.4880 c3         1 D18      -0.100100
     30 H101        -3.7720    -0.8540     7.1350 hc         1 D18       0.038950
     31 H102        -3.2260    -2.0180     8.3620 hc         1 D18       0.038950
     32 H103        -3.2240    -0.2840     8.7290 hc         1 D18       0.038950
     33 H91         -1.9090    -1.7700     5.4140 hc         1 D18       0.038950
     34 H92         -0.2580    -1.9820     6.0450 hc         1 D18       0.038950
     35 H93         -1.5760    -2.9720     6.6770 hc         1 D18       0.038950
     36 H8          -0.9270    -1.1080     8.2580 h1         1 D18       0.031200
     37 HN2         -1.9090     0.5380     6.0290 hn         1 D18       0.423000
     38 H7           0.6560     0.4000     7.3540 h2         1 D18       0.038200
     39 HN11        -0.8760     2.5680     6.2270 hn         1 D18       0.404000
     40 HN12        -0.7850     2.1890     7.7840 hn         1 D18       0.404000
     41 H3          -1.3550     1.5430     4.2640 ha         1 D18       0.121750
     42 H5           2.2160    -0.3970     5.7460 ha         1 D18       0.121750
     43 H6           2.9440    -0.8310     3.4400 ha         1 D18       0.120250
     44 HB           3.4630    -1.3330     1.3330 ha         1 D18       0.141500
     45 H16          3.4220    -1.2980    -1.3660 ha         1 D18       0.141500
     46 H2          -0.6860     1.1690    -1.7980 ha         1 D18       0.120250
     47 H13         -1.4760     1.6630    -4.0720 ha         1 D18       0.121750
     48 H14          2.0300    -0.2670    -5.7140 ha         1 D18       0.121750
     49 H15          2.8270    -0.7610    -3.4430 ha         1 D18       0.120250
     50 H12          0.5020     0.7000    -7.2390 h2         1 D18       0.038200
     51 HN'1        -1.1330     2.3280    -7.5950 hn         1 D18       0.404000
     52 HN'2        -1.2730     2.6240    -6.0190 hn         1 D18       0.404000
     53 H11         -2.0570     0.5720    -5.9030 hn         1 D18       0.423000
     54 H4          -0.9100    -1.5260    -6.3460 h1         1 D18       0.031200
     55 H9'1        -3.0330    -2.5860    -7.0590 hc         1 D18       0.038950
     56 H9'2        -3.3320    -1.3280    -5.8460 hc         1 D18       0.038950
     57 H9'3        -3.6780    -1.0090    -7.5630 hc         1 D18       0.038950
     58 H1'1        -1.6130    -0.7190    -9.2340 hc         1 D18       0.038950
     59 H1'2         0.0260    -0.9720    -8.5900 hc         1 D18       0.038950
     60 H1'3        -1.0930    -2.3360    -8.7170 hc         1 D18       0.038950
     61 H17         -0.6360     1.1070     1.9540 ha         1 D18       0.120250
@<TRIPOS>BOND
     1     1     3 1   
     2     1    30 1   
     3     1    31 1   
     4     1    32 1   
     5     2     3 1   
     6     2    33 1   
     7     2    34 1   
     8     2    35 1   
     9     3     4 1   
    10     3    36 1   
    11     4     5 1   
    12     4    37 1   
    13     5     6 1   
    14     5    10 1   
    15     5    38 1   
    16     6    39 1   
    17     6    40 1   
    18     7     8 ar  
    19     7    12 ar  
    20     7    13 1   
    21     8     9 ar  
    22     8    61 1   
    23     9    10 ar  
    24     9    41 1   
    25    10    11 ar  
    26    11    12 ar  
    27    11    42 1   
    28    12    43 1   
    29    13    14 2   
    30    13    17 1   
    31    14    15 1   
    32    14    44 1   
    33    15    16 2   
    34    15    45 1   
    35    16    17 1   
    36    16    18 1   
    37    18    19 ar  
    38    18    23 ar  
    39    19    20 ar  
    40    19    46 1   
    41    20    21 ar  
    42    20    47 1   
    43    21    22 ar  
    44    21    24 1   
    45    22    23 ar  
    46    22    48 1   
    47    23    49 1   
    48    24    25 1   
    49    24    26 1   
    50    24    50 1   
    51    25    51 1   
    52    25    52 1   
    53    26    27 1   
    54    26    53 1   
    55    27    28 1   
    56    27    29 1   
    57    27    54 1   
    58    28    55 1   
    59    28    56 1   
    60    28    57 1   
    61    29    58 1   
    62    29    59 1   
    63    29    60 1   
@<TRIPOS>SUBSTRUCTURE
     1 D18         1 TEMP              0 ****  ****    0 ROOT
