@<TRIPOS>MOLECULE
D19
   57    61     1     0     0
SMALL
No Charge or Current Charge


@<TRIPOS>ATOM
      1 C10         -0.2100    -0.9810    -9.6640 cx         1 D19      -0.121900
      2 C9           0.1140     0.4840    -9.5040 cx         1 D19      -0.121900
      3 C8           0.8510    -0.5460    -8.6850 cx         1 D19       0.105000
      4 N2           0.5160    -0.6420    -7.2750 n7         1 D19      -0.873900
      5 C7           1.0250     0.3510    -6.3570 c3         1 D19       0.450000
      6 N1           2.4300     0.0820    -6.4070 n8         1 D19      -1.009700
      7 C1          -0.6760    -0.0550    -2.3280 ca         1 D19      -0.116000
      8 C2           0.6500     0.3880    -2.5100 ca         1 D19      -0.097000
      9 C3           1.1990     0.5140    -3.7980 ca         1 D19      -0.094750
     10 C4           0.4390     0.1910    -4.9440 ca         1 D19      -0.108800
     11 C5          -0.8960    -0.2340    -4.7600 ca         1 D19      -0.094750
     12 C6          -1.4440    -0.3600    -3.4720 ca         1 D19      -0.097000
     13 CA          -1.2270    -0.1780    -0.9710 cc         1 D19       0.194000
     14 CB          -2.4510    -0.6990    -0.6350 cd         1 D19      -0.170000
     15 C21         -2.5410    -0.6210     0.7730 cd         1 D19      -0.170000
     16 C20         -1.3660    -0.0580     1.2040 cc         1 D19       0.194000
     17 O1          -0.5320     0.2210     0.1460 os         1 D19      -0.235000
     18 C14         -0.9920     0.2190     2.5980 ca         1 D19      -0.116000
     19 C15          0.2950     0.7170     2.8920 ca         1 D19      -0.097000
     20 C16          0.6770     0.9890     4.2180 ca         1 D19      -0.094750
     21 C17         -0.2240     0.7710     5.2820 ca         1 D19      -0.108800
     22 C18         -1.5090     0.2740     4.9900 ca         1 D19      -0.094750
     23 C19         -1.8900     0.0020     3.6650 ca         1 D19      -0.097000
     24 C13          0.1610     1.0440     6.7370 c3         1 D19       0.450000
     25 N4           0.7070     2.3370     6.9470 n8         1 D19      -1.009700
     26 N3           1.3000     0.2900     7.1540 n7         1 D19      -0.873900
     27 C12          1.0060    -1.0790     7.5170 cx         1 D19       0.105000
     28 C11          1.9810    -1.7670     8.4380 cx         1 D19      -0.121900
     29 CAX          0.6230    -1.3500     8.9500 cx         1 D19      -0.121900
     30 H101         0.1180    -1.4770   -10.5740 hc         1 D19       0.074700
     31 H102        -1.1580    -1.3360    -9.2680 hc         1 D19       0.074700
     32 H91         -0.6170     1.1120    -9.0010 hc         1 D19       0.074700
     33 H92          0.6610     0.9740   -10.3060 hc         1 D19       0.074700
     34 H8           1.8870    -0.7570    -8.9590 h1         1 D19       0.052700
     35 HN2          0.6830    -1.5750    -6.8920 hn         1 D19       0.425500
     36 H7           0.8220     1.3650    -6.7320 h2         1 D19       0.059700
     37 HN11         2.5780    -0.8610    -6.0460 hn         1 D19       0.402000
     38 HN12         2.6750     0.0420    -7.3950 hn         1 D19       0.402000
     39 H3           2.2210     0.8710    -3.9000 ha         1 D19       0.126250
     40 H5          -1.5190    -0.4640    -5.6210 ha         1 D19       0.126250
     41 H6          -2.4750    -0.6900    -3.3780 ha         1 D19       0.120000
     42 HB          -3.2020    -1.0980    -1.3070 ha         1 D19       0.141500
     43 H16         -3.3760    -0.9480     1.3830 ha         1 D19       0.141500
     44 H2           1.0100     0.8940     2.0920 ha         1 D19       0.120000
     45 H13          1.6770     1.3700     4.4100 ha         1 D19       0.126250
     46 H14         -2.2180     0.0960     5.7970 ha         1 D19       0.126250
     47 H15         -2.8920    -0.3780     3.4820 ha         1 D19       0.120000
     48 H12         -0.6910     0.8900     7.4160 h2         1 D19       0.059700
     49 HN'1         1.1470     2.2730     7.8660 hn         1 D19       0.402000
     50 HN'2         1.4840     2.4440     6.2980 hn         1 D19       0.402000
     51 H11          1.9280     0.2670     6.3480 hn         1 D19       0.425500
     52 H4           0.5330    -1.6910     6.7460 h1         1 D19       0.052700
     53 H9'1         2.1600    -2.8270     8.2800 hc         1 D19       0.074700
     54 H9'2         2.8460    -1.2050     8.7820 hc         1 D19       0.074700
     55 H1'1         0.5770    -0.5080     9.6350 hc         1 D19       0.074700
     56 H1'2        -0.1110    -2.1300     9.1350 hc         1 D19       0.074700
     57 H17          1.2660     0.6410    -1.6490 ha         1 D19       0.120000
@<TRIPOS>BOND
     1     1     2 1   
     2     1     3 1   
     3     1    30 1   
     4     1    31 1   
     5     2     3 1   
     6     2    32 1   
     7     2    33 1   
     8     3     4 1   
     9     3    34 1   
    10     4     5 1   
    11     4    35 1   
    12     5     6 1   
    13     5    10 1   
    14     5    36 1   
    15     6    37 1   
    16     6    38 1   
    17     7     8 ar  
    18     7    12 ar  
    19     7    13 1   
    20     8     9 ar  
    21     8    57 1   
    22     9    10 ar  
    23     9    39 1   
    24    10    11 ar  
    25    11    12 ar  
    26    11    40 1   
    27    12    41 1   
    28    13    14 2   
    29    13    17 1   
    30    14    15 1   
    31    14    42 1   
    32    15    16 2   
    33    15    43 1   
    34    16    17 1   
    35    16    18 1   
    36    18    19 ar  
    37    18    23 ar  
    38    19    20 ar  
    39    19    44 1   
    40    20    21 ar  
    41    20    45 1   
    42    21    22 ar  
    43    21    24 1   
    44    22    23 ar  
    45    22    46 1   
    46    23    47 1   
    47    24    25 1   
    48    24    26 1   
    49    24    48 1   
    50    25    49 1   
    51    25    50 1   
    52    26    27 1   
    53    26    51 1   
    54    27    28 1   
    55    27    29 1   
    56    27    52 1   
    57    28    29 1   
    58    28    53 1   
    59    28    54 1   
    60    29    55 1   
    61    29    56 1   
@<TRIPOS>SUBSTRUCTURE
     1 D19         1 TEMP              0 ****  ****    0 ROOT
