@<TRIPOS>MOLECULE
D19
   57    61     1     0     0
SMALL
abcg2


@<TRIPOS>ATOM
      1 C10          0.1860    -0.3410    -9.5750 cx         1 D19      -0.121900
      2 C9           0.6500     1.0070    -9.1090 cx         1 D19      -0.121900
      3 C8           1.1430    -0.2330    -8.4320 cx         1 D19       0.105000
      4 N2           0.6370    -0.5030    -7.1240 n7         1 D19      -0.873900
      5 C7           1.3130     0.2030    -6.0510 c3         1 D19       0.450000
      6 N1           2.7170    -0.0950    -5.8400 n8         1 D19      -1.009700
      7 C1          -0.9440    -0.1950    -2.3630 ca         1 D19      -0.116000
      8 C2           0.4450    -0.0600    -2.3400 ca         1 D19      -0.097000
      9 C3           1.1650     0.0510    -3.5200 ca         1 D19      -0.094750
     10 C4           0.5330     0.0290    -4.7600 ca         1 D19      -0.108800
     11 C5          -0.8560    -0.1070    -4.7790 ca         1 D19      -0.094750
     12 C6          -1.5810    -0.2140    -3.6070 ca         1 D19      -0.097000
     13 CA          -1.7260    -0.3080    -1.1450 cc         1 D19       0.194000
     14 CB          -3.0510    -0.5260    -0.9070 cd         1 D19      -0.170000
     15 C21         -3.2150    -0.5190     0.5010 cd         1 D19      -0.170000
     16 C20         -1.9790    -0.2980     1.0350 cc         1 D19       0.194000
     17 O1          -1.0810    -0.1740     0.0340 os         1 D19      -0.235000
     18 C14         -1.4970    -0.1750     2.3980 ca         1 D19      -0.116000
     19 C15         -0.1350    -0.0440     2.6900 ca         1 D19      -0.097000
     20 C16          0.2960     0.0860     3.9990 ca         1 D19      -0.094750
     21 C17         -0.6090     0.0880     5.0590 ca         1 D19      -0.108800
     22 C18         -1.9620    -0.0540     4.7660 ca         1 D19      -0.094750
     23 C19         -2.4040    -0.1810     3.4600 ca         1 D19      -0.097000
     24 C13         -0.1460     0.3100     6.4850 c3         1 D19       0.450000
     25 N4           0.2600     1.6790     6.7500 n8         1 D19      -1.009700
     26 N3           0.9670    -0.5740     6.7680 n7         1 D19      -0.873900
     27 C12          1.3510    -0.6320     8.1450 cx         1 D19       0.105000
     28 C11          2.6800    -1.2450     8.4580 cx         1 D19      -0.121900
     29 CAX          2.4730     0.2320     8.6160 cx         1 D19      -0.121900
     30 H101         0.5580    -0.7160   -10.5200 hc         1 D19       0.074700
     31 H102        -0.8310    -0.6290    -9.3420 hc         1 D19       0.074700
     32 H91         -0.0580     1.6190    -8.5660 hc         1 D19       0.074700
     33 H92          1.3410     1.5600    -9.7320 hc         1 D19       0.074700
     34 H8           2.1740    -0.5140    -8.6530 h1         1 D19       0.052700
     35 HN2          0.6310    -1.5010    -6.9420 hn         1 D19       0.425500
     36 H7           1.2670     1.2650    -6.3190 h2         1 D19       0.059700
     37 HN11         2.8460    -1.0890    -5.6880 hn         1 D19       0.402000
     38 HN12         3.2510     0.1470    -6.6650 hn         1 D19       0.402000
     39 H3           2.2400     0.1560    -3.4710 ha         1 D19       0.126250
     40 H5          -1.3750    -0.1280    -5.7270 ha         1 D19       0.126250
     41 H6          -2.6580    -0.3070    -3.6660 ha         1 D19       0.120000
     42 HB          -3.8230    -0.6770    -1.6440 ha         1 D19       0.141500
     43 H16         -4.1350    -0.6660     1.0440 ha         1 D19       0.141500
     44 H2           0.5990    -0.0430     1.8960 ha         1 D19       0.120000
     45 H13          1.3570     0.1830     4.1950 ha         1 D19       0.126250
     46 H14         -2.6880    -0.0600     5.5720 ha         1 D19       0.126250
     47 H15         -3.4650    -0.2800     3.2710 ha         1 D19       0.120000
     48 H12         -1.0050     0.1140     7.1470 h2         1 D19       0.059700
     49 HN'1         1.0200     1.9320     6.1280 hn         1 D19       0.402000
     50 HN'2        -0.5080     2.3020     6.5330 hn         1 D19       0.402000
     51 H11          0.7340    -1.5040     6.4440 hn         1 D19       0.425500
     52 H4           0.5560    -0.8160     8.8700 h1         1 D19       0.052700
     53 H9'1         2.7640    -1.8580     9.3460 hc         1 D19       0.074700
     54 H9'2         3.2790    -1.5840     7.6210 hc         1 D19       0.074700
     55 H1'1         2.9330     0.8850     7.8860 hc         1 D19       0.074700
     56 H1'2         2.4160     0.6410     9.6160 hc         1 D19       0.074700
     57 H17          0.9820    -0.0410    -1.4000 ha         1 D19       0.120000
@<TRIPOS>BOND
     1     1     2 1   
     2     1     3 1   
     3     1    30 1   
     4     1    31 1   
     5     2     3 1   
     6     2    32 1   
     7     2    33 1   
     8     3     4 1   
     9     3    34 1   
    10     4     5 1   
    11     4    35 1   
    12     5     6 1   
    13     5    10 1   
    14     5    36 1   
    15     6    37 1   
    16     6    38 1   
    17     7     8 ar  
    18     7    12 ar  
    19     7    13 1   
    20     8     9 ar  
    21     8    57 1   
    22     9    10 ar  
    23     9    39 1   
    24    10    11 ar  
    25    11    12 ar  
    26    11    40 1   
    27    12    41 1   
    28    13    14 2   
    29    13    17 1   
    30    14    15 1   
    31    14    42 1   
    32    15    16 2   
    33    15    43 1   
    34    16    17 1   
    35    16    18 1   
    36    18    19 ar  
    37    18    23 ar  
    38    19    20 ar  
    39    19    44 1   
    40    20    21 ar  
    41    20    45 1   
    42    21    22 ar  
    43    21    24 1   
    44    22    23 ar  
    45    22    46 1   
    46    23    47 1   
    47    24    25 1   
    48    24    26 1   
    49    24    48 1   
    50    25    49 1   
    51    25    50 1   
    52    26    27 1   
    53    26    51 1   
    54    27    28 1   
    55    27    29 1   
    56    27    52 1   
    57    28    29 1   
    58    28    53 1   
    59    28    54 1   
    60    29    55 1   
    61    29    56 1   
@<TRIPOS>SUBSTRUCTURE
     1 D19         1 TEMP              0 ****  ****    0 ROOT
