@<TRIPOS>MOLECULE
D1A
   45    47     1     0     0
SMALL
No Charge or Current Charge


@<TRIPOS>ATOM
      1 O3          -6.1230     3.4010    -0.3890 o          1 D1A      -0.415500
      2 N7          -5.2410     2.5370    -0.2970 no         1 D1A       0.709200
      3 O2          -4.0340     2.8030    -0.2090 o          1 D1A      -0.415500
      4 C3          -5.6620     1.0980    -0.2910 ca         1 D1A      -0.214200
      5 C2          -7.0370     0.7520    -0.3900 ca         1 D1A       0.002000
      6 C4          -4.7390     0.0320    -0.1910 ca         1 D1A       0.019800
      7 N1          -3.3530     0.0560    -0.0830 na         1 D1A      -0.190700
      8 C8          -2.8320    -1.2620    -0.0060 cc         1 D1A      -0.148300
      9 C7          -3.9610    -2.0710    -0.0730 cd         1 D1A      -0.144200
     10 C5          -5.1540    -1.2720    -0.1880 ca         1 D1A      -0.140800
     11 C6          -6.4990    -1.6400    -0.2840 ca         1 D1A       0.010000
     12 C1          -7.4480    -0.6030    -0.3860 ca         1 D1A      -0.169000
     13 C9          -1.4410    -1.7810     0.1160 c          1 D1A       0.639300
     14 O1          -1.1840    -2.9790     0.1690 o          1 D1A      -0.559100
     15 N2          -0.4870    -0.7710     0.1690 ns         1 D1A      -0.144000
     16 C10          0.9330    -0.7980     0.2640 ca         1 D1A      -0.026000
     17 C15          1.5990     0.4310     0.4140 ca         1 D1A      -0.147000
     18 C14          3.0000     0.4850     0.5110 ca         1 D1A      -0.064500
     19 C13          3.7700    -0.6980     0.4780 ca         1 D1A      -0.127900
     20 C12          3.1020    -1.9280     0.2950 ca         1 D1A      -0.064500
     21 C11          1.7000    -1.9800     0.1960 ca         1 D1A      -0.147000
     22 C16          5.2710    -0.6410     0.5370 ce         1 D1A       0.359900
     23 C17          6.0080    -1.7720     1.2500 c3         1 D1A      -0.162400
     24 N3           5.8750     0.4250     0.0860 n2         1 D1A      -0.348400
     25 N4           7.2520     0.5070    -0.0240 nu         1 D1A      -0.616500
     26 C18          7.9510     1.5930    -0.4390 c2         1 D1A       0.820100
     27 N6           9.2120     1.2230    -0.6190 nv         1 D1A      -1.078200
     28 N5           7.5060     2.7660    -0.4840 n2         1 D1A      -0.835100
     29 H2          -7.7990     1.5260    -0.4700 ha         1 D1A       0.149000
     30 H1          -8.5050    -0.8470    -0.4620 ha         1 D1A       0.130000
     31 HA          -2.8110     0.9150    -0.0640 hn         1 D1A       0.383000
     32 H7          -3.9400    -3.1590    -0.0430 ha         1 D1A       0.229000
     33 H6          -6.8020    -2.6850    -0.2800 ha         1 D1A       0.129000
     34 HB          -0.8710     0.1620     0.1320 hn         1 D1A       0.153000
     35 H15          1.0300     1.3580     0.4550 ha         1 D1A       0.127000
     36 H11          1.2340    -2.9490     0.0550 ha         1 D1A       0.127000
     37 H14          3.4840     1.4530     0.6250 ha         1 D1A       0.129000
     38 H12          3.6660    -2.8550     0.2140 ha         1 D1A       0.129000
     39 H171         6.5800    -2.3800     0.5400 hc         1 D1A       0.046700
     40 H172         6.7050    -1.3800     2.0000 hc         1 D1A       0.046700
     41 H173         5.3240    -2.4400     1.7840 hc         1 D1A       0.046700
     42 H61N         9.2940     0.4930    -1.3160 hn         1 D1A       0.456000
     43 H62N         9.8400     1.9980    -0.7910 hn         1 D1A       0.456000
     44 H5N          8.2710     3.3850    -0.7650 hn         1 D1A       0.378400
     45 H4N          7.8760    -0.2450     0.2580 hn         1 D1A       0.481000
@<TRIPOS>BOND
     1     1     2 1   
     2     2     3 1   
     3     2     4 1   
     4     4     5 ar  
     5     4     6 ar  
     6     5    12 ar  
     7     5    29 1   
     8     6     7 1   
     9     6    10 ar  
    10     7     8 1   
    11     7    31 1   
    12     8     9 2   
    13     8    13 1   
    14     9    10 1   
    15     9    32 1   
    16    10    11 ar  
    17    11    12 ar  
    18    11    33 1   
    19    12    30 1   
    20    13    14 2   
    21    13    15 1   
    22    15    16 1   
    23    15    34 1   
    24    16    17 ar  
    25    16    21 ar  
    26    17    18 ar  
    27    17    35 1   
    28    18    19 ar  
    29    18    37 1   
    30    19    20 ar  
    31    19    22 1   
    32    20    21 ar  
    33    20    38 1   
    34    21    36 1   
    35    22    23 1   
    36    22    24 2   
    37    23    39 1   
    38    23    40 1   
    39    23    41 1   
    40    24    25 1   
    41    25    26 1   
    42    25    45 1   
    43    26    27 1   
    44    26    28 2   
    45    27    42 1   
    46    27    43 1   
    47    28    44 1   
@<TRIPOS>SUBSTRUCTURE
     1 D1A         1 TEMP              0 ****  ****    0 ROOT
