@<TRIPOS>MOLECULE
D1A
   45    47     1     0     0
SMALL
abcg2


@<TRIPOS>ATOM
      1 O3          -6.1470     3.0810     0.8480 o          1 D1A      -0.415500
      2 N7          -5.2710     2.2600     0.7160 no         1 D1A       0.709200
      3 O2          -4.1160     2.4550     1.0410 o          1 D1A      -0.415500
      4 C3          -5.5920     0.9820     0.1460 ca         1 D1A      -0.214200
      5 C2          -6.8960     0.7050    -0.2270 ca         1 D1A       0.002000
      6 C4          -4.6020     0.0050    -0.0430 ca         1 D1A       0.019800
      7 N1          -3.2740    -0.0190     0.2080 na         1 D1A      -0.190700
      8 C8          -2.7650    -1.2500    -0.1440 cc         1 D1A      -0.148300
      9 C7          -3.7670    -2.0300    -0.6410 cd         1 D1A      -0.144200
     10 C5          -4.9560    -1.2500    -0.5980 ca         1 D1A      -0.140800
     11 C6          -6.2750    -1.5070    -0.9710 ca         1 D1A       0.010000
     12 C1          -7.2330    -0.5290    -0.7830 ca         1 D1A      -0.169000
     13 C9          -1.3480    -1.6420    -0.0080 c          1 D1A       0.639300
     14 O1          -1.0390    -2.8190     0.0210 o          1 D1A      -0.559100
     15 N2          -0.4670    -0.6110     0.0620 ns         1 D1A      -0.144000
     16 C10          0.9230    -0.6850     0.2050 ca         1 D1A      -0.026000
     17 C15          1.6670     0.4310    -0.1910 ca         1 D1A      -0.147000
     18 C14          3.0380     0.4520    -0.0590 ca         1 D1A      -0.064500
     19 C13          3.7310    -0.6390     0.4780 ca         1 D1A      -0.127900
     20 C12          2.9770    -1.7420     0.8740 ca         1 D1A      -0.064500
     21 C11          1.5950    -1.7770     0.7450 ca         1 D1A      -0.147000
     22 C16          5.2030    -0.6250     0.6040 ce         1 D1A       0.359900
     23 C17          5.8690    -1.7040     1.4090 c3         1 D1A      -0.162400
     24 N3           5.8070     0.3150    -0.0170 n2         1 D1A      -0.348400
     25 N4           7.1350     0.4030     0.0030 nu         1 D1A      -0.616500
     26 C18          7.7750     1.4490    -0.6310 c2         1 D1A       0.820100
     27 N6           9.1390     1.3930    -0.4610 nv         1 D1A      -1.078200
     28 N5           7.1150     2.3560    -1.2390 n2         1 D1A      -0.835100
     29 H2          -7.6650     1.4500    -0.0890 ha         1 D1A       0.149000
     30 H1          -8.2600    -0.7150    -1.0640 ha         1 D1A       0.130000
     31 HA          -2.7820     0.7110     0.6980 hn         1 D1A       0.383000
     32 H7          -3.6660    -3.0360    -1.0160 ha         1 D1A       0.229000
     33 H6          -6.5440    -2.4640    -1.3990 ha         1 D1A       0.129000
     34 HB          -0.8110     0.3070    -0.1760 hn         1 D1A       0.153000
     35 H15          1.1600     1.2940    -0.6070 ha         1 D1A       0.127000
     36 H11          1.0650    -2.6550     1.0760 ha         1 D1A       0.127000
     37 H14          3.5850     1.3290    -0.3790 ha         1 D1A       0.129000
     38 H12          3.4590    -2.6150     1.2920 ha         1 D1A       0.129000
     39 H171         6.0020    -2.6120     0.8160 hc         1 D1A       0.046700
     40 H172         6.8480    -1.4160     1.7890 hc         1 D1A       0.046700
     41 H173         5.2720    -1.9690     2.2800 hc         1 D1A       0.046700
     42 H61N         9.5550     0.4870    -0.3100 hn         1 D1A       0.456000
     43 H62N         9.6740     1.9500    -1.1070 hn         1 D1A       0.456000
     44 H5N          7.7500     3.0270    -1.6550 hn         1 D1A       0.378400
     45 H4N          7.6930    -0.2700     0.5100 hn         1 D1A       0.481000
@<TRIPOS>BOND
     1     1     2 1   
     2     2     3 1   
     3     2     4 1   
     4     4     5 ar  
     5     4     6 ar  
     6     5    12 ar  
     7     5    29 1   
     8     6     7 1   
     9     6    10 ar  
    10     7     8 1   
    11     7    31 1   
    12     8     9 2   
    13     8    13 1   
    14     9    10 1   
    15     9    32 1   
    16    10    11 ar  
    17    11    12 ar  
    18    11    33 1   
    19    12    30 1   
    20    13    14 2   
    21    13    15 1   
    22    15    16 1   
    23    15    34 1   
    24    16    17 ar  
    25    16    21 ar  
    26    17    18 ar  
    27    17    35 1   
    28    18    19 ar  
    29    18    37 1   
    30    19    20 ar  
    31    19    22 1   
    32    20    21 ar  
    33    20    38 1   
    34    21    36 1   
    35    22    23 1   
    36    22    24 2   
    37    23    39 1   
    38    23    40 1   
    39    23    41 1   
    40    24    25 1   
    41    25    26 1   
    42    25    45 1   
    43    26    27 1   
    44    26    28 2   
    45    27    42 1   
    46    27    43 1   
    47    28    44 1   
@<TRIPOS>SUBSTRUCTURE
     1 D1A         1 TEMP              0 ****  ****    0 ROOT
