@<TRIPOS>MOLECULE
D1B
   42    45     1     0     0
SMALL
abcg2


@<TRIPOS>ATOM
      1 C1           0.8900     0.0520     2.1550 cc         1 D1B      -0.143000
      2 S2          -0.1870    -0.0120     0.8100 ss         1 D1B       0.207000
      3 C3           1.1080     0.0910    -0.3190 cc         1 D1B      -0.250900
      4 C4           2.3160     0.1660     0.3230 cd         1 D1B      -0.074000
      5 C5           2.1900     0.1420     1.7260 cd         1 D1B      -0.127000
      6 C6           0.8940     0.0980    -1.7470 cc         1 D1B       0.500400
      7 N7           1.8580     0.2180    -2.6270 nd         1 D1B      -0.567100
      8 C8           1.2380     0.1750    -3.8450 ca         1 D1B       0.084400
      9 C9          -0.1500     0.0260    -3.6790 ca         1 D1B      -0.089200
     10 N10         -0.3330    -0.0200    -2.3240 na         1 D1B      -0.308600
     11 C11          1.7700     0.2560    -5.1320 ca         1 D1B      -0.059000
     12 C12          0.8980     0.1730    -6.2010 ca         1 D1B      -0.118000
     13 C13         -0.4910     0.0160    -6.0220 ca         1 D1B      -0.132900
     14 C14         -1.0320    -0.0510    -4.7440 ca         1 D1B      -0.061000
     15 C15          0.3890     0.0090     3.5240 ca         1 D1B       0.003000
     16 C16         -0.9420     0.3080     3.8280 ca         1 D1B      -0.103000
     17 C17         -1.3990     0.2660     5.1320 ca         1 D1B      -0.085000
     18 C18         -0.5410    -0.0610     6.1790 ca         1 D1B      -0.190900
     19 C19          0.7890    -0.3540     5.8810 ca         1 D1B      -0.085000
     20 C20          1.2440    -0.3280     4.5760 ca         1 D1B      -0.103000
     21 C21         -1.4120    -0.0730    -7.1880 ce         1 D1B       0.662800
     22 N22         -0.8400    -0.5040    -8.3520 nv         1 D1B      -1.075200
     23 N23         -2.6300     0.2850    -7.0390 n2         1 D1B      -0.833100
     24 C24         -1.0550    -0.1100     7.5760 ce         1 D1B       0.661800
     25 N25         -2.2360    -0.4750     7.9020 n2         1 D1B      -0.842100
     26 N26         -0.1460     0.2260     8.5340 nv         1 D1B      -1.034200
     27 H4           3.2570     0.2420    -0.2010 ha         1 D1B       0.159000
     28 H5           3.0340     0.2090     2.3970 ha         1 D1B       0.140000
     29 H10         -1.2180    -0.1380    -1.8550 hn         1 D1B       0.361000
     30 H11          2.8330     0.3830    -5.2890 ha         1 D1B       0.131000
     31 H12          1.3020     0.2550    -7.2020 ha         1 D1B       0.120000
     32 H14         -2.0970    -0.1670    -4.6020 ha         1 D1B       0.141000
     33 H16         -1.6340     0.5980     3.0460 ha         1 D1B       0.119000
     34 H17         -2.4330     0.5190     5.3320 ha         1 D1B       0.124000
     35 H19          1.4770    -0.6320     6.6690 ha         1 D1B       0.124000
     36 H20          2.2750    -0.5900     4.3770 ha         1 D1B       0.119000
     37 H221        -1.4580    -0.7170    -9.1190 hn         1 D1B       0.461500
     38 H222        -0.0440    -1.1170    -8.2940 hn         1 D1B       0.461500
     39 H23         -3.1640     0.1320    -7.8910 hn         1 D1B       0.371400
     40 H25         -2.7530    -0.7900     7.0890 hn         1 D1B       0.388400
     41 H261        -0.5020     0.3220     9.4710 hn         1 D1B       0.470500
     42 H262         0.5830     0.8790     8.2980 hn         1 D1B       0.470500
@<TRIPOS>BOND
     1     1     2 1   
     2     1     5 2   
     3     1    15 1   
     4     2     3 1   
     5     3     4 2   
     6     3     6 1   
     7     4     5 1   
     8     4    27 1   
     9     5    28 1   
    10     6     7 2   
    11     6    10 1   
    12     7     8 1   
    13     8     9 ar  
    14     8    11 ar  
    15     9    10 1   
    16     9    14 ar  
    17    10    29 1   
    18    11    12 ar  
    19    11    30 1   
    20    12    13 ar  
    21    12    31 1   
    22    13    14 ar  
    23    13    21 1   
    24    14    32 1   
    25    15    16 ar  
    26    15    20 ar  
    27    16    17 ar  
    28    16    33 1   
    29    17    18 ar  
    30    17    34 1   
    31    18    19 ar  
    32    18    24 1   
    33    19    20 ar  
    34    19    35 1   
    35    20    36 1   
    36    21    22 1   
    37    21    23 2   
    38    22    37 1   
    39    22    38 1   
    40    23    39 1   
    41    24    25 2   
    42    24    26 1   
    43    25    40 1   
    44    26    41 1   
    45    26    42 1   
@<TRIPOS>SUBSTRUCTURE
     1 D1B         1 TEMP              0 ****  ****    0 ROOT
