@<TRIPOS>MOLECULE
D1B
   42    45     1     0     0
SMALL
No Charge or Current Charge


@<TRIPOS>ATOM
      1 C1           0.6950     0.0650     2.1510 cc         1 D1B      -0.143000
      2 S2          -0.3930    -0.0690     0.7710 ss         1 D1B       0.207000
      3 C3           0.9690     0.1330    -0.3270 cc         1 D1B      -0.250900
      4 C4           2.1550     0.3050     0.3500 cd         1 D1B      -0.074000
      5 C5           1.9990     0.2710     1.7630 cd         1 D1B      -0.127000
      6 C6           0.8760     0.1280    -1.7580 cc         1 D1B       0.500400
      7 N7           1.8740     0.2800    -2.6500 nd         1 D1B      -0.567100
      8 C8           1.2320     0.1930    -3.8820 ca         1 D1B       0.084400
      9 C9          -0.1080    -0.0040    -3.7330 ca         1 D1B      -0.089200
     10 N10         -0.3490    -0.0460    -2.3940 na         1 D1B      -0.308600
     11 C11          1.7960     0.2910    -5.1590 ca         1 D1B      -0.059000
     12 C12          0.9470     0.1750    -6.2830 ca         1 D1B      -0.118000
     13 C13         -0.4550    -0.0490    -6.1280 ca         1 D1B      -0.132900
     14 C14         -0.9890    -0.1230    -4.8150 ca         1 D1B      -0.061000
     15 C15          0.3010     0.0150     3.5620 ca         1 D1B       0.003000
     16 C16         -0.9880     0.4280     3.9490 ca         1 D1B      -0.103000
     17 C17         -1.3850     0.3820     5.2970 ca         1 D1B      -0.085000
     18 C18         -0.4950    -0.0710     6.2980 ca         1 D1B      -0.190900
     19 C19          0.7890    -0.5100     5.9010 ca         1 D1B      -0.085000
     20 C20          1.1820    -0.4620     4.5530 ca         1 D1B      -0.103000
     21 C21         -1.3710    -0.1440    -7.3150 ce         1 D1B       0.662800
     22 N22         -0.8360    -0.4640    -8.5130 nv         1 D1B      -1.075200
     23 N23         -2.6320    -0.0290    -7.2340 n2         1 D1B      -0.833100
     24 C24         -0.9280    -0.1600     7.7270 ce         1 D1B       0.661800
     25 N25         -2.1420    -0.2240     8.0890 n2         1 D1B      -0.842100
     26 N26          0.0080    -0.0070     8.6800 nv         1 D1B      -1.034200
     27 H4           3.1140     0.4560    -0.1400 ha         1 D1B       0.159000
     28 H5           2.8280     0.4060     2.4510 ha         1 D1B       0.140000
     29 H10         -1.2400    -0.1790    -1.9370 hn         1 D1B       0.361000
     30 H11          2.8630     0.4600    -5.2810 ha         1 D1B       0.131000
     31 H12          1.3860     0.2740    -7.2720 ha         1 D1B       0.120000
     32 H14         -2.0530    -0.2760    -4.6440 ha         1 D1B       0.141000
     33 H16         -1.6890     0.7980     3.2060 ha         1 D1B       0.119000
     34 H17         -2.3860     0.7200     5.5570 ha         1 D1B       0.124000
     35 H19          1.4880    -0.9060     6.6350 ha         1 D1B       0.124000
     36 H20          2.1720    -0.8190     4.2820 ha         1 D1B       0.119000
     37 H221        -1.4570    -0.9380    -9.1590 hn         1 D1B       0.461500
     38 H222         0.1080    -0.8290    -8.4810 hn         1 D1B       0.461500
     39 H23         -3.0000     0.0820    -8.1850 hn         1 D1B       0.371400
     40 H25         -2.7090    -0.3880     7.2480 hn         1 D1B       0.388400
     41 H261        -0.3730     0.2540     9.5810 hn         1 D1B       0.470500
     42 H262         0.8440     0.4860     8.3940 hn         1 D1B       0.470500
@<TRIPOS>BOND
     1     1     2 1   
     2     1     5 2   
     3     1    15 1   
     4     2     3 1   
     5     3     4 2   
     6     3     6 1   
     7     4     5 1   
     8     4    27 1   
     9     5    28 1   
    10     6     7 2   
    11     6    10 1   
    12     7     8 1   
    13     8     9 ar  
    14     8    11 ar  
    15     9    10 1   
    16     9    14 ar  
    17    10    29 1   
    18    11    12 ar  
    19    11    30 1   
    20    12    13 ar  
    21    12    31 1   
    22    13    14 ar  
    23    13    21 1   
    24    14    32 1   
    25    15    16 ar  
    26    15    20 ar  
    27    16    17 ar  
    28    16    33 1   
    29    17    18 ar  
    30    17    34 1   
    31    18    19 ar  
    32    18    24 1   
    33    19    20 ar  
    34    19    35 1   
    35    20    36 1   
    36    21    22 1   
    37    21    23 2   
    38    22    37 1   
    39    22    38 1   
    40    23    39 1   
    41    24    25 2   
    42    24    26 1   
    43    25    40 1   
    44    26    41 1   
    45    26    42 1   
@<TRIPOS>SUBSTRUCTURE
     1 D1B         1 TEMP              0 ****  ****    0 ROOT
