@<TRIPOS>MOLECULE
D1D
   16    16     1     0     0
SMALL
bcc


@<TRIPOS>ATOM
      1 S1           0.9460    -0.3630    -1.6520 ss         1 D1D      -0.170600
      2 C1           1.5000     0.3430    -0.0790 c6         1 D1D      -0.047800
      3 C2           0.7240    -0.1970     1.1250 c6         1 D1D       0.156100
      4 O2           1.2830     0.3260     2.3060 oh         1 D1D      -0.575800
      5 C3          -0.7520     0.2020     1.1260 c6         1 D1D       0.156100
      6 O3          -1.3150    -0.3360     2.2990 oh         1 D1D      -0.575800
      7 C4          -1.5260    -0.3220    -0.0860 c6         1 D1D      -0.047800
      8 S4          -0.9670     0.4020    -1.6500 ss         1 D1D      -0.170600
      9 H1C1         1.4450     1.4320    -0.1300 h1         1 D1D       0.086950
     10 H1C2         2.5530     0.0590     0.0120 h1         1 D1D       0.086950
     11 H2           0.7840    -1.2960     1.1050 h1         1 D1D       0.056700
     12 HA           2.1830    -0.0050     2.3870 ho         1 D1D       0.407000
     13 H3          -0.8120     1.3010     1.1210 h1         1 D1D       0.056700
     14 HB          -2.2160    -0.0070     2.3820 ho         1 D1D       0.407000
     15 H4C1        -2.5790    -0.0390     0.0050 h1         1 D1D       0.086950
     16 H4C2        -1.4730    -1.4110    -0.1500 h1         1 D1D       0.086950
@<TRIPOS>BOND
     1     1     2 1   
     2     1     8 1   
     3     2     3 1   
     4     2     9 1   
     5     2    10 1   
     6     3     4 1   
     7     3     5 1   
     8     3    11 1   
     9     4    12 1   
    10     5     6 1   
    11     5     7 1   
    12     5    13 1   
    13     6    14 1   
    14     7     8 1   
    15     7    15 1   
    16     7    16 1   
@<TRIPOS>SUBSTRUCTURE
     1 D1D         1 TEMP              0 ****  ****    0 ROOT
