@<TRIPOS>MOLECULE
D1D
   16    16     1     0     0
SMALL
No Charge or Current Charge


@<TRIPOS>ATOM
      1 S1           1.0730    -0.4260    -1.6250 ss         1 D1D      -0.218500
      2 C1           1.4710     0.3920    -0.0180 c6         1 D1D       0.000100
      3 C2           0.6100    -0.1410     1.1600 c6         1 D1D       0.179300
      4 O2           1.1020     0.4020     2.4000 oh         1 D1D      -0.638000
      5 C3          -0.9110     0.2070     1.0080 c6         1 D1D       0.179300
      6 O3          -1.6220    -0.2400     2.1720 oh         1 D1D      -0.638000
      7 C4          -1.5590    -0.4120    -0.2580 c6         1 D1D       0.000100
      8 S4          -0.8800     0.2870    -1.8260 ss         1 D1D      -0.218500
      9 H1C1         1.3290     1.4760    -0.1340 h1         1 D1D       0.086950
     10 H1C2         2.5340     0.2080     0.1870 h1         1 D1D       0.086950
     11 H2           0.7060    -1.2370     1.1760 h1         1 D1D       0.056700
     12 HA           1.9980     0.0240     2.5460 ho         1 D1D       0.446000
     13 H3          -1.0000     1.3010     0.9280 h1         1 D1D       0.056700
     14 HB          -1.0190    -0.0370     2.9240 ho         1 D1D       0.446000
     15 H4C1        -2.6400    -0.2130    -0.2500 h1         1 D1D       0.086950
     16 H4C2        -1.4140    -1.5010    -0.2690 h1         1 D1D       0.086950
@<TRIPOS>BOND
     1     1     2 1   
     2     1     8 1   
     3     2     3 1   
     4     2     9 1   
     5     2    10 1   
     6     3     4 1   
     7     3     5 1   
     8     3    11 1   
     9     4    12 1   
    10     5     6 1   
    11     5     7 1   
    12     5    13 1   
    13     6    14 1   
    14     7     8 1   
    15     7    15 1   
    16     7    16 1   
@<TRIPOS>SUBSTRUCTURE
     1 D1D         1 TEMP              0 ****  ****    0 ROOT
