@<TRIPOS>MOLECULE
D1F
   50    51     1     0     0
SMALL
No Charge or Current Charge


@<TRIPOS>ATOM
      1 N1          -0.8220    -0.8960    -0.0460 n          1 D1F      -0.291000
      2 C2          -1.2860    -2.2200     0.1080 c          1 D1F       0.627000
      3 O2          -2.4620    -2.5410     0.0780 o          1 D1F      -0.541000
      4 N3          -0.3290    -3.1730     0.2700 ns         1 D1F      -0.470500
      5 C4           1.0230    -3.0240     0.2880 c          1 D1F       0.597200
      6 O4           1.7550    -3.9900     0.4460 o          1 D1F      -0.513000
      7 C5           1.4750    -1.6230     0.0980 cc         1 D1F      -0.117900
      8 C6           0.5470    -0.6180    -0.0630 cd         1 D1F       0.030600
      9 C7           2.8760    -1.3580     0.0900 cg         1 D1F      -0.146300
     10 C8           4.0630    -1.0990     0.0810 c1         1 D1F      -0.104100
     11 C9           5.4860    -0.7390     0.0740 c3         1 D1F       0.008700
     12 C1          -1.7740     0.2390    -0.1530 c6         1 D1F       0.355700
     13 C10          5.7100     0.7890     0.0940 c3         1 D1F      -0.073400
     14 C11          7.2050     1.1810     0.0870 c3         1 D1F      -0.077400
     15 C12          7.4290     2.7090     0.1070 c3         1 D1F      -0.074400
     16 C13          8.9200     3.1000     0.1010 c3         1 D1F      -0.089100
     17 C14         -2.4830     0.3040    -1.5460 c6         1 D1F       0.130300
     18 O1          -1.5530     0.4720    -2.6420 oh         1 D1F      -0.716000
     19 C3          -3.4990     1.4810    -1.5380 c6         1 D1F       0.134300
     20 O3          -4.2210     1.5340    -2.7790 oh         1 D1F      -0.659000
     21 C15         -4.4880     1.3490    -0.3410 c6         1 D1F       0.101300
     22 O7          -5.4010     2.4700    -0.3480 oh         1 D1F      -0.721000
     23 C16         -3.6660     1.2600     0.9880 c6         1 D1F       0.150300
     24 O5          -2.7400     0.1450     0.9160 os         1 D1F      -0.427000
     25 C17         -4.5660     1.0600     2.2520 c3         1 D1F       0.171600
     26 O6          -3.8090     0.9230     3.4720 oh         1 D1F      -0.703000
     27 HN3         -0.6680    -4.1150     0.3840 hn         1 D1F       0.343500
     28 H6           0.8050     0.4280    -0.2080 h4         1 D1F       0.213000
     29 H9           5.9710    -1.1950     0.9460 hc         1 D1F       0.059700
     30 H9A          5.9560    -1.1700    -0.8190 hc         1 D1F       0.059700
     31 H1          -1.2040     1.1690    -0.0160 h2         1 D1F       0.054700
     32 H10          5.2180     1.2390    -0.7780 hc         1 D1F       0.045200
     33 H10A         5.2320     1.2140     0.9860 hc         1 D1F       0.045200
     34 H11          7.6990     0.7330     0.9590 hc         1 D1F       0.038700
     35 H11A         7.6840     0.7590    -0.8050 hc         1 D1F       0.038700
     36 H12          6.9390     3.1600    -0.7650 hc         1 D1F       0.037700
     37 H12A         6.9530     3.1350     0.9990 hc         1 D1F       0.037700
     38 H13          9.4320     2.6920     0.9810 hc         1 D1F       0.032033
     39 H13A         9.4170     2.7180    -0.7990 hc         1 D1F       0.032033
     40 H13B         9.0290     4.1910     0.1150 hc         1 D1F       0.032033
     41 H2          -3.0500    -0.6300    -1.6790 h1         1 D1F       0.085700
     42 HO2         -2.1040     0.7980    -3.3950 ho         1 D1F       0.531000
     43 H3          -2.9350     2.4170    -1.4030 h1         1 D1F       0.051700
     44 HO3         -4.9940     2.1180    -2.5950 ho         1 D1F       0.465000
     45 H4          -5.0470     0.4060    -0.4610 h1         1 D1F       0.065700
     46 HO4         -6.2360     2.1840     0.0960 ho         1 D1F       0.515000
     47 H5          -3.0910     2.1880     1.1240 h1         1 D1F       0.063700
     48 H7          -5.2450     1.9190     2.3340 h1         1 D1F       0.030200
     49 H6'A        -5.1860     0.1670     2.0930 h1         1 D1F       0.030200
     50 HO6         -4.4550     0.7290     4.1910 ho         1 D1F       0.509000
@<TRIPOS>BOND
     1     1     2 1   
     2     1     8 1   
     3     1    12 1   
     4     2     3 2   
     5     2     4 1   
     6     4     5 1   
     7     4    27 1   
     8     5     6 2   
     9     5     7 1   
    10     7     8 2   
    11     7     9 1   
    12     8    28 1   
    13     9    10 3   
    14    10    11 1   
    15    11    13 1   
    16    11    29 1   
    17    11    30 1   
    18    12    17 1   
    19    12    24 1   
    20    12    31 1   
    21    13    14 1   
    22    13    32 1   
    23    13    33 1   
    24    14    15 1   
    25    14    34 1   
    26    14    35 1   
    27    15    16 1   
    28    15    36 1   
    29    15    37 1   
    30    16    38 1   
    31    16    39 1   
    32    16    40 1   
    33    17    18 1   
    34    17    19 1   
    35    17    41 1   
    36    18    42 1   
    37    19    20 1   
    38    19    21 1   
    39    19    43 1   
    40    20    44 1   
    41    21    22 1   
    42    21    23 1   
    43    21    45 1   
    44    22    46 1   
    45    23    24 1   
    46    23    25 1   
    47    23    47 1   
    48    25    26 1   
    49    25    48 1   
    50    25    49 1   
    51    26    50 1   
@<TRIPOS>SUBSTRUCTURE
     1 D1F         1 TEMP              0 ****  ****    0 ROOT
