@<TRIPOS>MOLECULE
D1F
   50    51     1     0     0
SMALL
abcg2


@<TRIPOS>ATOM
      1 N1          -0.8940    -0.9020     0.0060 n          1 D1F      -0.291000
      2 C2          -1.3140    -2.2060     0.2130 c          1 D1F       0.627000
      3 O2          -2.4770    -2.5310     0.2710 o          1 D1F      -0.541000
      4 N3          -0.2950    -3.1130     0.3520 ns         1 D1F      -0.470500
      5 C4           1.0670    -2.8980     0.2630 c          1 D1F       0.597200
      6 O4           1.8560    -3.8110     0.3940 o          1 D1F      -0.513000
      7 C5           1.4210    -1.5120     0.0030 cc         1 D1F      -0.117900
      8 C6           0.4280    -0.6000    -0.1050 cd         1 D1F       0.030600
      9 C7           2.7850    -1.1570    -0.1420 cg         1 D1F      -0.146300
     10 C8           3.9460    -0.8610    -0.2850 c1         1 D1F      -0.104100
     11 C9           5.3380    -0.4740    -0.4610 c3         1 D1F       0.008700
     12 C1          -1.8700     0.1610    -0.1860 c6         1 D1F       0.355700
     13 C10          5.6810     0.8520     0.2250 c3         1 D1F      -0.073400
     14 C11          7.1280     1.2570    -0.0150 c3         1 D1F      -0.077400
     15 C12          7.4990     2.5730     0.6560 c3         1 D1F      -0.074400
     16 C13          8.9430     2.9790     0.3950 c3         1 D1F      -0.089100
     17 C14         -2.6680     0.0080    -1.4790 c6         1 D1F       0.130300
     18 O1          -1.7320    -0.0280    -2.5220 oh         1 D1F      -0.716000
     19 C3          -3.6110     1.2000    -1.5720 c6         1 D1F       0.134300
     20 O3          -4.3860     1.0360    -2.7310 oh         1 D1F      -0.659000
     21 C15         -4.4670     1.2920    -0.3130 c6         1 D1F       0.101300
     22 O7          -5.2510     2.4570    -0.4270 oh         1 D1F      -0.721000
     23 C16         -3.5600     1.3440     0.9240 c6         1 D1F       0.150300
     24 O5          -2.6900     0.2240     0.9330 os         1 D1F      -0.427000
     25 C17         -4.3560     1.3110     2.2090 c3         1 D1F       0.171600
     26 O6          -3.4800     1.4610     3.2980 oh         1 D1F      -0.703000
     27 HN3         -0.5930    -4.0660     0.5210 hn         1 D1F       0.343500
     28 H6           0.6550     0.4410    -0.2900 h4         1 D1F       0.213000
     29 H9           5.9800    -1.2690    -0.0700 hc         1 D1F       0.059700
     30 H9A          5.5580    -0.4020    -1.5300 hc         1 D1F       0.059700
     31 H1          -1.2770     1.0820    -0.2770 h2         1 D1F       0.054700
     32 H10          5.0120     1.6330    -0.1490 hc         1 D1F       0.045200
     33 H10A         5.4900     0.7630     1.2970 hc         1 D1F       0.045200
     34 H11          7.7940     0.4650     0.3450 hc         1 D1F       0.038700
     35 H11A         7.3090     1.3380    -1.0930 hc         1 D1F       0.038700
     36 H12          6.8280     3.3620     0.3040 hc         1 D1F       0.037700
     37 H12A         7.3300     2.4900     1.7340 hc         1 D1F       0.037700
     38 H13          9.6380     2.2210     0.7620 hc         1 D1F       0.032033
     39 H13A         9.1300     3.1060    -0.6730 hc         1 D1F       0.032033
     40 H13B         9.1920     3.9190     0.8880 hc         1 D1F       0.032033
     41 H2          -3.2700    -0.9080    -1.4440 h1         1 D1F       0.085700
     42 HO2         -2.2060    -0.1150    -3.3560 ho         1 D1F       0.531000
     43 H3          -3.0000     2.1170    -1.6340 h1         1 D1F       0.051700
     44 HO3         -4.9290     1.8230    -2.8450 ho         1 D1F       0.465000
     45 H4          -5.0970     0.3930    -0.2500 h1         1 D1F       0.065700
     46 HO4         -6.0920     2.3190     0.0160 ho         1 D1F       0.515000
     47 H5          -2.9690     2.2740     0.8860 h1         1 D1F       0.063700
     48 H7          -5.0950     2.1190     2.1730 h1         1 D1F       0.030200
     49 H6'A        -4.9130     0.3650     2.2550 h1         1 D1F       0.030200
     50 HO6         -4.0040     1.4570     4.1040 ho         1 D1F       0.509000
@<TRIPOS>BOND
     1     1     2 1   
     2     1     8 1   
     3     1    12 1   
     4     2     3 2   
     5     2     4 1   
     6     4     5 1   
     7     4    27 1   
     8     5     6 2   
     9     5     7 1   
    10     7     8 2   
    11     7     9 1   
    12     8    28 1   
    13     9    10 3   
    14    10    11 1   
    15    11    13 1   
    16    11    29 1   
    17    11    30 1   
    18    12    17 1   
    19    12    24 1   
    20    12    31 1   
    21    13    14 1   
    22    13    32 1   
    23    13    33 1   
    24    14    15 1   
    25    14    34 1   
    26    14    35 1   
    27    15    16 1   
    28    15    36 1   
    29    15    37 1   
    30    16    38 1   
    31    16    39 1   
    32    16    40 1   
    33    17    18 1   
    34    17    19 1   
    35    17    41 1   
    36    18    42 1   
    37    19    20 1   
    38    19    21 1   
    39    19    43 1   
    40    20    44 1   
    41    21    22 1   
    42    21    23 1   
    43    21    45 1   
    44    22    46 1   
    45    23    24 1   
    46    23    25 1   
    47    23    47 1   
    48    25    26 1   
    49    25    48 1   
    50    25    49 1   
    51    26    50 1   
@<TRIPOS>SUBSTRUCTURE
     1 D1F         1 TEMP              0 ****  ****    0 ROOT
