@<TRIPOS>MOLECULE
D1G
   29    30     1     0     0
SMALL
bcc


@<TRIPOS>ATOM
      1 C_1          1.8630    -0.1380    -0.0020 ca         1 D1G      -0.234800
      2 C_2          2.0750     1.1440    -0.5100 ca         1 D1G      -0.074000
      3 C_3          3.3630     1.6520    -0.5350 ca         1 D1G      -0.248300
      4 C_4          4.4010     0.8710    -0.0530 ca         1 D1G       0.403200
      5 N_1          4.2150    -0.3530     0.4320 nb         1 D1G      -0.665000
      6 C_5          2.9860    -0.8370     0.4530 ca         1 D1G       0.418200
      7 C_6          0.5450    -0.7400     0.0700 cc         1 D1G       0.295200
      8 C_7          0.0810    -1.9060     0.5980 cd         1 D1G      -0.248300
      9 C_8         -1.3210    -1.9220     0.3590 cd         1 D1G      -0.245300
     10 C_9         -1.6160    -0.7700    -0.2960 cc         1 D1G       0.246000
     11 O_1         -0.4840    -0.0540    -0.4740 os         1 D1G      -0.332800
     12 C10         -2.9000    -0.2000    -0.7870 c3         1 D1G       0.135500
     13 N_2         -3.7090     0.3580     0.2850 n3         1 D1G      -0.708600
     14 C11         -3.0910     1.5180     0.8920 c3         1 D1G       0.147600
     15 C12         -5.0390     0.6700    -0.1940 c3         1 D1G       0.147600
     16 H_2          1.2520     1.7420    -0.8770 ha         1 D1G       0.148000
     17 H_3          3.5600     2.6430    -0.9210 ha         1 D1G       0.143000
     18 H_4          5.4190     1.2440    -0.0580 h4         1 D1G       0.021100
     19 H_5          2.8750    -1.8400     0.8530 h4         1 D1G       0.021100
     20 H_7          0.6580    -2.6640     1.1020 ha         1 D1G       0.160000
     21 H_8         -2.0230    -2.6910     0.6380 ha         1 D1G       0.165000
     22 H101        -3.4710    -1.0060    -1.2520 h1         1 D1G       0.050700
     23 H102        -2.6950     0.5380    -1.5810 h1         1 D1G       0.050700
     24 H111        -2.1200     1.2650     1.3190 h1         1 D1G       0.033867
     25 H112        -2.9440     2.3490     0.1840 h1         1 D1G       0.033867
     26 H113        -3.7170     1.8820     1.7060 h1         1 D1G       0.033867
     27 H121        -5.0510     1.4350    -0.9860 h1         1 D1G       0.033867
     28 H122        -5.5180    -0.2270    -0.5890 h1         1 D1G       0.033867
     29 H123        -5.6510     1.0390     0.6310 h1         1 D1G       0.033867
@<TRIPOS>BOND
     1     1     2 ar  
     2     1     6 ar  
     3     1     7 1   
     4     2     3 ar  
     5     2    16 1   
     6     3     4 ar  
     7     3    17 1   
     8     4     5 ar  
     9     4    18 1   
    10     5     6 ar  
    11     6    19 1   
    12     7     8 2   
    13     7    11 1   
    14     8     9 1   
    15     8    20 1   
    16     9    10 2   
    17     9    21 1   
    18    10    11 1   
    19    10    12 1   
    20    12    13 1   
    21    12    22 1   
    22    12    23 1   
    23    13    14 1   
    24    13    15 1   
    25    14    24 1   
    26    14    25 1   
    27    14    26 1   
    28    15    27 1   
    29    15    28 1   
    30    15    29 1   
@<TRIPOS>SUBSTRUCTURE
     1 D1G         1 TEMP              0 ****  ****    0 ROOT
