@<TRIPOS>MOLECULE
D1G
   29    30     1     0     0
SMALL
No Charge or Current Charge


@<TRIPOS>ATOM
      1 C_1          1.9790    -0.0940    -0.0370 ca         1 D1G      -0.169500
      2 C_2          2.3120     1.1020    -0.7050 ca         1 D1G      -0.056000
      3 C_3          3.6570     1.5020    -0.7360 ca         1 D1G      -0.165000
      4 C_4          4.6250     0.7060    -0.1040 ca         1 D1G       0.337900
      5 N_1          4.3200    -0.4430     0.5400 nb         1 D1G      -0.665000
      6 C_5          3.0220    -0.8290     0.5680 ca         1 D1G       0.352900
      7 C_6          0.5890    -0.5490     0.0190 cc         1 D1G       0.185500
      8 C_7          0.1270    -1.6770     0.6410 cd         1 D1G      -0.165000
      9 C_8         -1.2680    -1.6910     0.4280 cd         1 D1G      -0.162000
     10 C_9         -1.5830    -0.5770    -0.3090 cc         1 D1G       0.136300
     11 O_1         -0.4380     0.1450    -0.5740 os         1 D1G      -0.244000
     12 C10         -2.9140    -0.0750    -0.8230 c3         1 D1G       0.135500
     13 N_2         -3.8900     0.2810     0.2430 n3         1 D1G      -0.708600
     14 C11         -3.4070     1.3550     1.1420 c3         1 D1G       0.147600
     15 C12         -5.2370     0.5670    -0.2990 c3         1 D1G       0.147600
     16 H_2          1.5500     1.7090    -1.1900 ha         1 D1G       0.130000
     17 H_3          3.9530     2.4170    -1.2410 ha         1 D1G       0.125000
     18 H_4          5.6750     0.9950    -0.1140 h4         1 D1G       0.021100
     19 H_5          2.8250    -1.7590     1.0970 h4         1 D1G       0.021100
     20 H_7          0.7050    -2.4130     1.1900 ha         1 D1G       0.142000
     21 H_8         -1.9730    -2.4370     0.7820 ha         1 D1G       0.147000
     22 H101        -3.3340    -0.8640    -1.4620 h1         1 D1G       0.050700
     23 H102        -2.7310     0.7930    -1.4710 h1         1 D1G       0.050700
     24 H111        -2.4600     1.0730     1.6210 h1         1 D1G       0.033867
     25 H112        -3.2450     2.2890     0.5850 h1         1 D1G       0.033867
     26 H113        -4.1370     1.5530     1.9380 h1         1 D1G       0.033867
     27 H121        -5.2200     1.4570    -0.9440 h1         1 D1G       0.033867
     28 H122        -5.6070    -0.2800    -0.8920 h1         1 D1G       0.033867
     29 H123        -5.9540     0.7470     0.5140 h1         1 D1G       0.033867
@<TRIPOS>BOND
     1     1     2 ar  
     2     1     6 ar  
     3     1     7 1   
     4     2     3 ar  
     5     2    16 1   
     6     3     4 ar  
     7     3    17 1   
     8     4     5 ar  
     9     4    18 1   
    10     5     6 ar  
    11     6    19 1   
    12     7     8 2   
    13     7    11 1   
    14     8     9 1   
    15     8    20 1   
    16     9    10 2   
    17     9    21 1   
    18    10    11 1   
    19    10    12 1   
    20    12    13 1   
    21    12    22 1   
    22    12    23 1   
    23    13    14 1   
    24    13    15 1   
    25    14    24 1   
    26    14    25 1   
    27    14    26 1   
    28    15    27 1   
    29    15    28 1   
    30    15    29 1   
@<TRIPOS>SUBSTRUCTURE
     1 D1G         1 TEMP              0 ****  ****    0 ROOT
