@<TRIPOS>MOLECULE
D1H
   46    49     1     0     0
SMALL
bcc


@<TRIPOS>ATOM
      1 O6           1.7620     1.8950    -0.5510 o          1 D1H      -0.601500
      2 C6           2.4220     0.8890    -0.3700 c          1 D1H       0.773600
      3 C5           3.8180     0.8300    -0.1070 cc         1 D1H      -0.370200
      4 N7           4.7720     1.8120     0.0220 na         1 D1H      -0.131900
      5 CAA          4.5820     3.2430    -0.0960 c3         1 D1H       0.032600
      6 C8           5.9200     1.1790     0.2750 cc         1 D1H       0.445400
      7 N9           5.7960    -0.1370     0.3250 nd         1 D1H      -0.704000
      8 C4           4.4920    -0.3480     0.0880 cd         1 D1H       0.501700
      9 N3           3.8540    -1.5550     0.0410 n          1 D1H      -0.427800
     10 CAC          4.5670    -2.8030     0.2580 c3         1 D1H       0.101800
     11 C2           2.5030    -1.6000    -0.1840 c          1 D1H       0.827000
     12 O2           1.9050    -2.6570    -0.1950 o          1 D1H      -0.614500
     13 N1           1.8460    -0.3890    -0.4060 n          1 D1H      -0.510400
     14 CAK          0.4090    -0.4590    -0.6580 c3         1 D1H       0.081500
     15 CAL         -0.3840    -0.3460     0.6410 c3         1 D1H       0.081500
     16 NBB         -1.8210    -0.3040     0.3830 n          1 D1H      -0.510400
     17 CAP         -2.4250     0.9610     0.3370 c          1 D1H       0.773600
     18 OAF         -1.7890     1.9860     0.4990 o          1 D1H      -0.601500
     19 CAV         -3.8220     0.8660     0.0920 cc         1 D1H      -0.370200
     20 NAX         -4.8070     1.8180    -0.0190 na         1 D1H      -0.131900
     21 CAB         -4.6630     3.2520     0.1180 c3         1 D1H       0.032600
     22 CAJ         -5.9380     1.1500    -0.2650 cc         1 D1H       0.445400
     23 NAN         -5.7740    -0.1610    -0.3240 nd         1 D1H      -0.704000
     24 CAT         -4.4610    -0.3300    -0.1010 cd         1 D1H       0.501700
     25 NAZ         -3.7960    -1.5210    -0.0670 n          1 D1H      -0.427800
     26 CAD         -4.5340    -2.7520    -0.2960 c3         1 D1H       0.101800
     27 CAR         -2.4470    -1.5360     0.1810 c          1 D1H       0.827000
     28 OAH         -1.8100    -2.5700     0.2280 o          1 D1H      -0.614500
     29 HAA1         4.2520     3.5010    -1.0990 h1         1 D1H       0.065200
     30 HAA2         3.8460     3.5880     0.6250 h1         1 D1H       0.065200
     31 HAA3         5.5300     3.7330     0.1040 h1         1 D1H       0.065200
     32 H8           6.8450     1.7160     0.4240 h5         1 D1H       0.062100
     33 HAC1         4.2160    -3.2970     1.1620 h1         1 D1H       0.058867
     34 HAC2         4.4360    -3.4710    -0.5890 h1         1 D1H       0.058867
     35 HAC3         5.6220    -2.5790     0.3680 h1         1 D1H       0.058867
     36 HAK1         0.1460     0.3540    -1.3310 h1         1 D1H       0.081450
     37 HAK2         0.1900    -1.3970    -1.1580 h1         1 D1H       0.081450
     38 HAL1        -0.1680    -1.1860     1.2970 h1         1 D1H       0.081450
     39 HAL2        -0.1150     0.5670     1.1630 h1         1 D1H       0.081450
     40 HAB1        -4.3180     3.5050     1.1170 h1         1 D1H       0.065200
     41 HAB2        -3.9570     3.6350    -0.6140 h1         1 D1H       0.065200
     42 HAB3        -5.6330     3.7120    -0.0500 h1         1 D1H       0.065200
     43 HAJ         -6.8810     1.6590    -0.3970 h5         1 D1H       0.062100
     44 HAD1        -3.8480    -3.5910    -0.2820 h1         1 D1H       0.058867
     45 HAD2        -5.2850    -2.8920     0.4780 h1         1 D1H       0.058867
     46 HAD3        -5.0280    -2.7150    -1.2650 h1         1 D1H       0.058867
@<TRIPOS>BOND
     1     1     2 2   
     2     2     3 1   
     3     2    13 1   
     4     3     4 1   
     5     3     8 2   
     6     4     5 1   
     7     4     6 1   
     8     5    29 1   
     9     5    30 1   
    10     5    31 1   
    11     6     7 2   
    12     6    32 1   
    13     7     8 1   
    14     8     9 1   
    15     9    10 1   
    16     9    11 1   
    17    10    33 1   
    18    10    34 1   
    19    10    35 1   
    20    11    12 2   
    21    11    13 1   
    22    13    14 1   
    23    14    15 1   
    24    14    36 1   
    25    14    37 1   
    26    15    16 1   
    27    15    38 1   
    28    15    39 1   
    29    16    17 1   
    30    16    27 1   
    31    17    18 2   
    32    17    19 1   
    33    19    20 1   
    34    19    24 2   
    35    20    21 1   
    36    20    22 1   
    37    21    40 1   
    38    21    41 1   
    39    21    42 1   
    40    22    23 2   
    41    22    43 1   
    42    23    24 1   
    43    24    25 1   
    44    25    26 1   
    45    25    27 1   
    46    26    44 1   
    47    26    45 1   
    48    26    46 1   
    49    27    28 2   
@<TRIPOS>SUBSTRUCTURE
     1 D1H         1 TEMP              0 ****  ****    0 ROOT
