@<TRIPOS>MOLECULE
D1H
   46    49     1     0     0
SMALL
No Charge or Current Charge


@<TRIPOS>ATOM
      1 O6           1.9480     1.9840    -0.3840 o          1 D1H      -0.526000
      2 C6           2.5400     0.9200    -0.2730 c          1 D1H       0.631100
      3 C5           3.9790     0.8380    -0.0350 cc         1 D1H      -0.355600
      4 N7           4.9530     1.8100     0.1110 na         1 D1H      -0.110500
      5 CAA          4.7640     3.2680     0.0590 c3         1 D1H       0.061900
      6 C8           6.1470     1.1510     0.3170 cc         1 D1H       0.445400
      7 N9           5.9650    -0.1630     0.3060 nd         1 D1H      -0.704000
      8 C4           4.6200    -0.3520     0.0870 cd         1 D1H       0.436400
      9 N3           3.9470    -1.5440    -0.0070 n          1 D1H      -0.360800
     10 CAC          4.6550    -2.8410     0.1270 c3         1 D1H       0.101800
     11 C2           2.5620    -1.5550    -0.2340 c          1 D1H       0.617500
     12 O2           1.9540    -2.6130    -0.3170 o          1 D1H      -0.539000
     13 N1           1.8960    -0.3220    -0.3540 n          1 D1H      -0.376400
     14 CAK          0.4320    -0.3330    -0.6400 c3         1 D1H       0.081500
     15 CAL         -0.4310    -0.3220     0.6390 c3         1 D1H       0.081500
     16 NBB         -1.8950    -0.3160     0.3520 n          1 D1H      -0.376400
     17 CAP         -2.5390     0.9240     0.2500 c          1 D1H       0.631100
     18 OAF         -1.9470     1.9900     0.3420 o          1 D1H      -0.526000
     19 CAV         -3.9780     0.8380     0.0140 cc         1 D1H      -0.355600
     20 NAX         -4.9520     1.8060    -0.1480 na         1 D1H      -0.110500
     21 CAB         -4.7640     3.2650    -0.1210 c3         1 D1H       0.061900
     22 CAJ         -6.1460     1.1440    -0.3420 cc         1 D1H       0.445400
     23 NAN         -5.9640    -0.1690    -0.3090 nd         1 D1H      -0.704000
     24 CAT         -4.6190    -0.3550    -0.0880 cd         1 D1H       0.436400
     25 NAZ         -3.9450    -1.5450     0.0260 n          1 D1H      -0.360800
     26 CAD         -4.6530    -2.8440    -0.0850 c3         1 D1H       0.101800
     27 CAR         -2.5610    -1.5510     0.2540 c          1 D1H       0.617500
     28 OAH         -1.9530    -2.6080     0.3570 o          1 D1H      -0.539000
     29 HAA1         4.3550     3.5500    -0.9190 h1         1 D1H       0.065200
     30 HAA2         4.0650     3.5760     0.8460 h1         1 D1H       0.065200
     31 HAA3         5.7230     3.7780     0.2090 h1         1 D1H       0.065200
     32 H8           7.0850     1.6740     0.4640 h5         1 D1H       0.062100
     33 HAC1         4.2470    -3.3980     0.9800 h1         1 D1H       0.058867
     34 HAC2         4.5150    -3.4340    -0.7860 h1         1 D1H       0.058867
     35 HAC3         5.7300    -2.6980     0.2860 h1         1 D1H       0.058867
     36 HAK1         0.1660     0.5360    -1.2560 h1         1 D1H       0.081450
     37 HAK2         0.1730    -1.2170    -1.2370 h1         1 D1H       0.081450
     38 HAL1        -0.1710    -1.1950     1.2510 h1         1 D1H       0.081450
     39 HAL2        -0.1650     0.5580     1.2390 h1         1 D1H       0.081450
     40 HAB1        -4.3550     3.5650     0.8520 h1         1 D1H       0.065200
     41 HAB2        -4.0650     3.5600    -0.9130 h1         1 D1H       0.065200
     42 HAB3        -5.7230     3.7720    -0.2800 h1         1 D1H       0.065200
     43 HAJ         -7.0850     1.6640    -0.4970 h5         1 D1H       0.062100
     44 HAD1        -4.2260    -3.4280    -0.9110 h1         1 D1H       0.058867
     45 HAD2        -4.5370    -3.4090     0.8490 h1         1 D1H       0.058867
     46 HAD3        -5.7230    -2.7040    -0.2770 h1         1 D1H       0.058867
@<TRIPOS>BOND
     1     1     2 2   
     2     2     3 1   
     3     2    13 1   
     4     3     4 1   
     5     3     8 2   
     6     4     5 1   
     7     4     6 1   
     8     5    29 1   
     9     5    30 1   
    10     5    31 1   
    11     6     7 2   
    12     6    32 1   
    13     7     8 1   
    14     8     9 1   
    15     9    10 1   
    16     9    11 1   
    17    10    33 1   
    18    10    34 1   
    19    10    35 1   
    20    11    12 2   
    21    11    13 1   
    22    13    14 1   
    23    14    15 1   
    24    14    36 1   
    25    14    37 1   
    26    15    16 1   
    27    15    38 1   
    28    15    39 1   
    29    16    17 1   
    30    16    27 1   
    31    17    18 2   
    32    17    19 1   
    33    19    20 1   
    34    19    24 2   
    35    20    21 1   
    36    20    22 1   
    37    21    40 1   
    38    21    41 1   
    39    21    42 1   
    40    22    23 2   
    41    22    43 1   
    42    23    24 1   
    43    24    25 1   
    44    25    26 1   
    45    25    27 1   
    46    26    44 1   
    47    26    45 1   
    48    26    46 1   
    49    27    28 2   
@<TRIPOS>SUBSTRUCTURE
     1 D1H         1 TEMP              0 ****  ****    0 ROOT
