@<TRIPOS>MOLECULE
D1I
   50    52     1     0     0
SMALL
No Charge or Current Charge


@<TRIPOS>ATOM
      1 N1          -0.8170    -0.3730    -0.0510 n          1 D1I      -0.283000
      2 C2          -0.4780    -0.2190     1.3340 c          1 D1I       0.709400
      3 O2          -1.3300    -0.0580     2.1980 o          1 D1I      -0.515000
      4 N3           0.8590    -0.2870     1.7080 nc         1 D1I      -0.384400
      5 C4           1.7570    -0.5030     0.7830 cd         1 D1I       0.285000
      6 C5           1.4740    -0.6810    -0.5560 cd         1 D1I      -0.271000
      7 O5           3.0940    -0.6090     0.9510 os         1 D1I      -0.260000
      8 C6           0.1820    -0.6240    -1.0060 cc         1 D1I       0.072600
      9 C7           2.6910    -0.9050    -1.2490 cd         1 D1I      -0.139000
     10 C8           3.6870    -0.8520    -0.2770 cc         1 D1I       0.177300
     11 C9           5.1780    -1.0130    -0.3660 c3         1 D1I      -0.111700
     12 C1          -2.2230    -0.2320    -0.4970 c6         1 D1I       0.339700
     13 C10          5.9350     0.3240    -0.2080 c3         1 D1I      -0.074400
     14 C11          7.4680     0.1660    -0.3090 c3         1 D1I      -0.076400
     15 C12          8.2250     1.5030    -0.1500 c3         1 D1I      -0.075400
     16 C13          9.7550     1.3460    -0.2500 c3         1 D1I      -0.089100
     17 C14         -3.1110    -1.4640    -0.1190 c6         1 D1I       0.135300
     18 O1          -2.6320    -2.6980    -0.7020 oh         1 D1I      -0.719000
     19 C3          -4.5680    -1.1930    -0.5870 c6         1 D1I       0.136300
     20 O3          -5.4330    -2.2740    -0.2000 oh         1 D1I      -0.659000
     21 C15         -5.0940     0.1550    -0.0090 c6         1 D1I       0.101300
     22 O4          -6.4400     0.3880    -0.4830 oh         1 D1I      -0.723000
     23 C16         -4.1120     1.3010    -0.4220 c6         1 D1I       0.148300
     24 O7          -2.7730     0.9890     0.0430 os         1 D1I      -0.424000
     25 C17         -4.5150     2.6950     0.1650 c3         1 D1I       0.170600
     26 O6          -3.5810     3.7420    -0.1670 oh         1 D1I      -0.705000
     27 H6          -0.1660    -0.7480    -2.0270 h4         1 D1I       0.211000
     28 H7           2.8320    -1.0810    -2.3110 ha         1 D1I       0.148000
     29 H19          5.5130    -1.7140     0.4070 hc         1 D1I       0.061700
     30 H29          5.4360    -1.4630    -1.3320 hc         1 D1I       0.061700
     31 H1          -2.2140    -0.1440    -1.5930 h2         1 D1I       0.044700
     32 H110         5.5920     1.0240    -0.9800 hc         1 D1I       0.051200
     33 H210         5.6810     0.7680     0.7630 hc         1 D1I       0.051200
     34 H111         7.8100    -0.5350     0.4630 hc         1 D1I       0.037700
     35 H211         7.7220    -0.2780    -1.2800 hc         1 D1I       0.037700
     36 H112         7.8870     2.2060    -0.9210 hc         1 D1I       0.039200
     37 H212         7.9760     1.9490     0.8210 hc         1 D1I       0.039200
     38 H113        10.1280     0.6750     0.5320 hc         1 D1I       0.032033
     39 H213        10.0390     0.9340    -1.2260 hc         1 D1I       0.032033
     40 H313        10.2470     2.3190    -0.1320 hc         1 D1I       0.032033
     41 H2          -3.1200    -1.5470     0.9790 h1         1 D1I       0.094700
     42 HO2         -3.4040    -3.3140    -0.6620 ho         1 D1I       0.530000
     43 H3          -4.5620    -1.1060    -1.6850 h1         1 D1I       0.049700
     44 HO3         -6.3450    -1.9130    -0.3000 ho         1 D1I       0.464000
     45 H4          -5.0880     0.0810     1.0910 h1         1 D1I       0.069700
     46 HO4         -6.8980     0.9660     0.1740 ho         1 D1I       0.514000
     47 H5          -4.0930     1.3870    -1.5190 h1         1 D1I       0.060700
     48 H16         -5.5120     2.9550    -0.2140 h1         1 D1I       0.030200
     49 H26         -4.5950     2.5960     1.2560 h1         1 D1I       0.030200
     50 HO6         -3.8800     4.5550     0.3050 ho         1 D1I       0.508000
@<TRIPOS>BOND
     1     1     2 1   
     2     1     8 1   
     3     1    12 1   
     4     2     3 2   
     5     2     4 1   
     6     4     5 2   
     7     5     6 1   
     8     5     7 1   
     9     6     8 2   
    10     6     9 1   
    11     7    10 1   
    12     8    27 1   
    13     9    10 2   
    14     9    28 1   
    15    10    11 1   
    16    11    13 1   
    17    11    29 1   
    18    11    30 1   
    19    12    17 1   
    20    12    24 1   
    21    12    31 1   
    22    13    14 1   
    23    13    32 1   
    24    13    33 1   
    25    14    15 1   
    26    14    34 1   
    27    14    35 1   
    28    15    16 1   
    29    15    36 1   
    30    15    37 1   
    31    16    38 1   
    32    16    39 1   
    33    16    40 1   
    34    17    18 1   
    35    17    19 1   
    36    17    41 1   
    37    18    42 1   
    38    19    20 1   
    39    19    21 1   
    40    19    43 1   
    41    20    44 1   
    42    21    22 1   
    43    21    23 1   
    44    21    45 1   
    45    22    46 1   
    46    23    24 1   
    47    23    25 1   
    48    23    47 1   
    49    25    26 1   
    50    25    48 1   
    51    25    49 1   
    52    26    50 1   
@<TRIPOS>SUBSTRUCTURE
     1 D1I         1 TEMP              0 ****  ****    0 ROOT
