@<TRIPOS>MOLECULE
D1I
   50    52     1     0     0
SMALL
bcc


@<TRIPOS>ATOM
      1 N1          -0.8010    -0.4440    -0.0910 n          1 D1I      -0.350000
      2 C2          -0.4030    -0.4130     1.2690 c          1 D1I       0.851900
      3 O2          -1.2380    -0.2880     2.1450 o          1 D1I      -0.590500
      4 N3           0.9270    -0.5260     1.5420 nc         1 D1I      -0.384400
      5 C4           1.7280    -0.6600     0.5400 cd         1 D1I       0.394700
      6 C5           1.4010    -0.7120    -0.8320 cd         1 D1I      -0.336300
      7 O5           3.0490    -0.7660     0.6880 os         1 D1I      -0.348800
      8 C6           0.0780    -0.5930    -1.1100 cc         1 D1I       0.122600
      9 C7           2.6500    -0.8610    -1.5290 cd         1 D1I      -0.222300
     10 C8           3.6010    -0.8840    -0.5800 cc         1 D1I       0.287000
     11 C9           5.0760    -0.9670    -0.6470 c3         1 D1I      -0.111700
     12 C1          -2.2090    -0.2930    -0.4370 c6         1 D1I       0.316500
     13 C10          5.7740     0.3140    -0.1790 c3         1 D1I      -0.074400
     14 C11          7.2880     0.2250    -0.3180 c3         1 D1I      -0.076400
     15 C12          7.9990     1.4950     0.1320 c3         1 D1I      -0.075400
     16 C13          9.5120     1.4060    -0.0160 c3         1 D1I      -0.089100
     17 C14         -3.0910    -1.4270     0.0840 c6         1 D1I       0.112100
     18 O1          -2.5880    -2.6090    -0.4820 oh         1 D1I      -0.596800
     19 C3          -4.5240    -1.1350    -0.3470 c6         1 D1I       0.113100
     20 O3          -5.3370    -2.1350     0.2110 oh         1 D1I      -0.596800
     21 C15         -4.9420     0.2630     0.0980 c6         1 D1I       0.078100
     22 O4          -6.2380     0.4880    -0.4090 oh         1 D1I      -0.600800
     23 C16         -3.9380     1.2870    -0.4440 c6         1 D1I       0.125100
     24 O7          -2.6330     0.9560     0.0000 os         1 D1I      -0.377600
     25 C17         -4.2380     2.6910     0.0300 c3         1 D1I       0.147400
     26 O6          -3.3380     3.5820    -0.5810 oh         1 D1I      -0.582800
     27 H6          -0.3250    -0.5980    -2.1130 h4         1 D1I       0.161000
     28 H7           2.8130    -0.9290    -2.5920 ha         1 D1I       0.166000
     29 H19          5.4280    -1.8160    -0.0520 hc         1 D1I       0.061700
     30 H29          5.3460    -1.1790    -1.6840 hc         1 D1I       0.061700
     31 H1          -2.2470    -0.3420    -1.5350 h2         1 D1I       0.044700
     32 H110         5.4010     1.1610    -0.7630 hc         1 D1I       0.051200
     33 H210         5.5160     0.5180     0.8640 hc         1 D1I       0.051200
     34 H111         7.6590    -0.6260     0.2650 hc         1 D1I       0.037700
     35 H211         7.5460     0.0140    -1.3610 hc         1 D1I       0.037700
     36 H112         7.6220     2.3440    -0.4480 hc         1 D1I       0.039200
     37 H212         7.7450     1.7040     1.1750 hc         1 D1I       0.039200
     38 H113         9.9170     0.5860     0.5800 hc         1 D1I       0.032033
     39 H213         9.7980     1.2300    -1.0540 hc         1 D1I       0.032033
     40 H313        10.0020     2.3250     0.3100 hc         1 D1I       0.032033
     41 H2          -3.0590    -1.4580     1.1770 h1         1 D1I       0.094700
     42 HO2         -3.1150    -3.3480    -0.1610 ho         1 D1I       0.431000
     43 H3          -4.5680    -1.1650    -1.4490 h1         1 D1I       0.049700
     44 HO3         -6.2340    -2.0150    -0.1170 ho         1 D1I       0.425000
     45 H4          -4.9320     0.3060     1.1960 h1         1 D1I       0.069700
     46 HO4         -6.7040     1.0970     0.1700 ho         1 D1I       0.415000
     47 H5          -3.9770     1.2690    -1.5440 h1         1 D1I       0.060700
     48 H16         -5.2760     2.9250    -0.2330 h1         1 D1I       0.030200
     49 H26         -4.1670     2.7220     1.1260 h1         1 D1I       0.030200
     50 HO6         -3.5720     4.4740    -0.3100 ho         1 D1I       0.409000
@<TRIPOS>BOND
     1     1     2 1   
     2     1     8 1   
     3     1    12 1   
     4     2     3 2   
     5     2     4 1   
     6     4     5 2   
     7     5     6 1   
     8     5     7 1   
     9     6     8 2   
    10     6     9 1   
    11     7    10 1   
    12     8    27 1   
    13     9    10 2   
    14     9    28 1   
    15    10    11 1   
    16    11    13 1   
    17    11    29 1   
    18    11    30 1   
    19    12    17 1   
    20    12    24 1   
    21    12    31 1   
    22    13    14 1   
    23    13    32 1   
    24    13    33 1   
    25    14    15 1   
    26    14    34 1   
    27    14    35 1   
    28    15    16 1   
    29    15    36 1   
    30    15    37 1   
    31    16    38 1   
    32    16    39 1   
    33    16    40 1   
    34    17    18 1   
    35    17    19 1   
    36    17    41 1   
    37    18    42 1   
    38    19    20 1   
    39    19    21 1   
    40    19    43 1   
    41    20    44 1   
    42    21    22 1   
    43    21    23 1   
    44    21    45 1   
    45    22    46 1   
    46    23    24 1   
    47    23    25 1   
    48    23    47 1   
    49    25    26 1   
    50    25    48 1   
    51    25    49 1   
    52    26    50 1   
@<TRIPOS>SUBSTRUCTURE
     1 D1I         1 TEMP              0 ****  ****    0 ROOT
