@<TRIPOS>MOLECULE
D1J
   44    45     1     0     0
SMALL
No Charge or Current Charge


@<TRIPOS>ATOM
      1 N1          -0.0060     0.6560    -0.0910 n          1 D1J      -0.291000
      2 C2           0.1780     2.0550    -0.0630 c          1 D1J       0.629000
      3 O2           1.2640     2.6050    -0.1540 o          1 D1J      -0.541000
      4 N3          -0.9510     2.8050     0.0440 ns         1 D1J      -0.470500
      5 C4          -2.2440     2.3860     0.1120 c          1 D1J       0.598200
      6 O4          -3.1570     3.1940     0.2070 o          1 D1J      -0.513000
      7 C5          -2.4010     0.9110     0.0550 cc         1 D1J      -0.117900
      8 C6          -1.2890     0.1050    -0.0460 cd         1 D1J       0.030600
      9 C7          -3.7180     0.3670     0.1070 cg         1 D1J      -0.147300
     10 C8          -4.8270    -0.1270     0.1510 c1         1 D1J      -0.103100
     11 C9          -6.1470    -0.7680     0.2020 c3         1 D1J       0.007700
     12 C1           1.1570    -0.2660    -0.1280 c6         1 D1J       0.355700
     13 C10         -6.0570    -2.3100     0.2000 c3         1 D1J      -0.074400
     14 C11         -7.4360    -2.9960     0.2540 c3         1 D1J      -0.091100
     15 C12          1.8500    -0.3100    -1.5310 c6         1 D1J       0.129300
     16 O1           0.9660    -0.7640    -2.5810 oh         1 D1J      -0.715000
     17 C3           3.0850    -1.2500    -1.4560 c6         1 D1J       0.103300
     18 O3           3.7850    -1.2650    -2.7110 oh         1 D1J      -0.661000
     19 C13          4.0390    -0.8140    -0.3040 c6         1 D1J       0.106300
     20 O7           5.1620    -1.7240    -0.2420 oh         1 D1J      -0.720000
     21 C14          3.2310    -0.7750     1.0380 c6         1 D1J       0.178300
     22 O5           2.0950     0.1180     0.9000 os         1 D1J      -0.429000
     23 C15          4.0860    -0.2870     2.2540 c3         1 D1J       0.171600
     24 O6           3.3330    -0.1980     3.4820 oh         1 D1J      -0.708000
     25 HN3         -0.8120     3.8020     0.0680 hn         1 D1J       0.343500
     26 H6          -1.3280    -0.9800    -0.0960 h4         1 D1J       0.213000
     27 H19         -6.6700    -0.4300     1.1050 hc         1 D1J       0.059700
     28 H29         -6.7390    -0.4310    -0.6580 hc         1 D1J       0.059700
     29 H1           0.7920    -1.2770     0.1040 h2         1 D1J       0.053700
     30 H110        -5.5290    -2.6440    -0.7030 hc         1 D1J       0.044200
     31 H210        -5.4610    -2.6430     1.0590 hc         1 D1J       0.044200
     32 H111        -7.9760    -2.7110     1.1650 hc         1 D1J       0.034033
     33 H211        -8.0450    -2.7120    -0.6130 hc         1 D1J       0.034033
     34 H311        -7.3210    -4.0870     0.2500 hc         1 D1J       0.034033
     35 H2           2.2100     0.7040    -1.7590 h1         1 D1J       0.088700
     36 HO2          1.5690    -1.0520    -3.3090 ho         1 D1J       0.528000
     37 H3           2.7270    -2.2650    -1.2250 h1         1 D1J       0.052700
     38 HO3          4.6600    -1.6720    -2.5100 ho         1 D1J       0.455000
     39 H4           4.3920     0.2080    -0.5180 h1         1 D1J       0.067700
     40 HO4          5.9440    -1.2190     0.0870 ho         1 D1J       0.515000
     41 H5           2.8600    -1.7850     1.2680 h1         1 D1J       0.061700
     42 H16          4.9270    -0.9810     2.3840 h1         1 D1J       0.038700
     43 H26          4.5090     0.6950     2.0000 h1         1 D1J       0.038700
     44 HO6          3.9360     0.1830     4.1640 ho         1 D1J       0.507000
@<TRIPOS>BOND
     1     1     2 1   
     2     1     8 1   
     3     1    12 1   
     4     2     3 2   
     5     2     4 1   
     6     4     5 1   
     7     4    25 1   
     8     5     6 2   
     9     5     7 1   
    10     7     8 2   
    11     7     9 1   
    12     8    26 1   
    13     9    10 3   
    14    10    11 1   
    15    11    13 1   
    16    11    27 1   
    17    11    28 1   
    18    12    15 1   
    19    12    22 1   
    20    12    29 1   
    21    13    14 1   
    22    13    30 1   
    23    13    31 1   
    24    14    32 1   
    25    14    33 1   
    26    14    34 1   
    27    15    16 1   
    28    15    17 1   
    29    15    35 1   
    30    16    36 1   
    31    17    18 1   
    32    17    19 1   
    33    17    37 1   
    34    18    38 1   
    35    19    20 1   
    36    19    21 1   
    37    19    39 1   
    38    20    40 1   
    39    21    22 1   
    40    21    23 1   
    41    21    41 1   
    42    23    24 1   
    43    23    42 1   
    44    23    43 1   
    45    24    44 1   
@<TRIPOS>SUBSTRUCTURE
     1 D1J         1 TEMP              0 ****  ****    0 ROOT
