@<TRIPOS>MOLECULE
D1J
   44    45     1     0     0
SMALL
bcc


@<TRIPOS>ATOM
      1 N1           0.0650     0.6900    -0.0960 n          1 D1J      -0.358000
      2 C2           0.2260     2.0530    -0.2880 c          1 D1J       0.838500
      3 O2           1.3000     2.5830    -0.4520 o          1 D1J      -0.616500
      4 N3          -0.9440     2.7670    -0.2750 ns         1 D1J      -0.604500
      5 C4          -2.2360     2.3040    -0.1200 c          1 D1J       0.740700
      6 O4          -3.1820     3.0640    -0.1390 o          1 D1J      -0.588500
      7 C5          -2.3170     0.8640     0.0650 cc         1 D1J      -0.117900
      8 C6          -1.1710     0.1450     0.0680 cd         1 D1J       0.080600
      9 C7          -3.5880     0.2590     0.2390 cg         1 D1J      -0.147300
     10 C8          -4.6740    -0.2440     0.3860 c1         1 D1J      -0.103100
     11 C9          -5.9730    -0.8810     0.5470 c3         1 D1J       0.007700
     12 C1           1.2240    -0.1930    -0.1020 c6         1 D1J       0.332500
     13 C10         -6.0180    -2.2930    -0.0450 c3         1 D1J      -0.074400
     14 C11         -7.3810    -2.9400     0.1510 c3         1 D1J      -0.091100
     15 C12          1.9330    -0.2420    -1.4540 c6         1 D1J       0.106100
     16 O1           0.9790    -0.6660    -2.3910 oh         1 D1J      -0.592800
     17 C3           3.0990    -1.2120    -1.3190 c6         1 D1J       0.080100
     18 O3           3.7940    -1.2080    -2.5440 oh         1 D1J      -0.598800
     19 C13          3.9940    -0.8020    -0.1490 c6         1 D1J       0.083100
     20 O7           5.0080    -1.7580     0.0610 oh         1 D1J      -0.597800
     21 C14          3.1560    -0.7040     1.1270 c6         1 D1J       0.155100
     22 O5           2.0780     0.1940     0.9230 os         1 D1J      -0.382600
     23 C15          3.9620    -0.1910     2.3000 c3         1 D1J       0.148400
     24 O6           3.1520    -0.2050     3.4510 oh         1 D1J      -0.585800
     25 HN3         -0.8350     3.7660    -0.4030 hn         1 D1J       0.343500
     26 H6          -1.1960    -0.9250     0.2090 h4         1 D1J       0.163000
     27 H19         -6.2290    -0.9220     1.6100 hc         1 D1J       0.059700
     28 H29         -6.7370    -0.2580     0.0730 hc         1 D1J       0.059700
     29 H1           0.8230    -1.1980     0.0930 h2         1 D1J       0.053700
     30 H110        -5.7740    -2.2460    -1.1080 hc         1 D1J       0.044200
     31 H210        -5.2450    -2.9040     0.4260 hc         1 D1J       0.044200
     32 H111        -7.6360    -3.0100     1.2100 hc         1 D1J       0.034033
     33 H211        -8.1680    -2.3670    -0.3430 hc         1 D1J       0.034033
     34 H311        -7.3980    -3.9490    -0.2610 hc         1 D1J       0.034033
     35 H2           2.3310     0.7490    -1.7040 h1         1 D1J       0.088700
     36 HO2          1.4090    -0.7310    -3.2510 ho         1 D1J       0.429000
     37 H3           2.6940    -2.2130    -1.1050 h1         1 D1J       0.052700
     38 HO3          4.2980    -2.0240    -2.6190 ho         1 D1J       0.416000
     39 H4           4.4230     0.1880    -0.3610 h1         1 D1J       0.067700
     40 HO4          5.7550    -1.5480    -0.5080 ho         1 D1J       0.416000
     41 H5           2.7630    -1.7050     1.3710 h1         1 D1J       0.061700
     42 H16          4.8400    -0.8320     2.4120 h1         1 D1J       0.038700
     43 H26          4.3250     0.8200     2.0670 h1         1 D1J       0.038700
     44 HO6          3.7130    -0.0220     4.2090 ho         1 D1J       0.408000
@<TRIPOS>BOND
     1     1     2 1   
     2     1     8 1   
     3     1    12 1   
     4     2     3 2   
     5     2     4 1   
     6     4     5 1   
     7     4    25 1   
     8     5     6 2   
     9     5     7 1   
    10     7     8 2   
    11     7     9 1   
    12     8    26 1   
    13     9    10 3   
    14    10    11 1   
    15    11    13 1   
    16    11    27 1   
    17    11    28 1   
    18    12    15 1   
    19    12    22 1   
    20    12    29 1   
    21    13    14 1   
    22    13    30 1   
    23    13    31 1   
    24    14    32 1   
    25    14    33 1   
    26    14    34 1   
    27    15    16 1   
    28    15    17 1   
    29    15    35 1   
    30    16    36 1   
    31    17    18 1   
    32    17    19 1   
    33    17    37 1   
    34    18    38 1   
    35    19    20 1   
    36    19    21 1   
    37    19    39 1   
    38    20    40 1   
    39    21    22 1   
    40    21    23 1   
    41    21    41 1   
    42    23    24 1   
    43    23    42 1   
    44    23    43 1   
    45    24    44 1   
@<TRIPOS>SUBSTRUCTURE
     1 D1J         1 TEMP              0 ****  ****    0 ROOT
