@<TRIPOS>MOLECULE
D1K
   44    46     1     0     0
SMALL
abcg2


@<TRIPOS>ATOM
      1 N1          -0.0720    -0.1910    -0.0920 n          1 D1K      -0.285000
      2 C2           0.3130    -0.0930     1.2690 c          1 D1K       0.709400
      3 O2          -0.5350    -0.0100     2.1370 o          1 D1K      -0.513000
      4 N3           1.6450    -0.0970     1.5510 nc         1 D1K      -0.385400
      5 C4           2.4610    -0.1940     0.5580 cd         1 D1K       0.285000
      6 C5           2.1500    -0.2960    -0.8160 cd         1 D1K      -0.270000
      7 O5           3.7850    -0.2100     0.7170 os         1 D1K      -0.261000
      8 C6           0.8240    -0.2920    -1.1030 cc         1 D1K       0.071600
      9 C7           3.4120    -0.3740    -1.5000 cd         1 D1K      -0.140000
     10 C8           4.3550    -0.3180    -0.5440 cc         1 D1K       0.178300
     11 C9           5.8330    -0.3250    -0.5930 c3         1 D1K      -0.113700
     12 C1          -1.4880    -0.2140    -0.4420 c6         1 D1K       0.342700
     13 C10          6.4680     0.9840    -0.1130 c3         1 D1K      -0.073400
     14 C11          7.9860     0.9340    -0.2020 c3         1 D1K      -0.091100
     15 C12         -2.2200    -1.4380     0.1060 c6         1 D1K       0.116300
     16 O1          -1.5870    -2.5620    -0.4470 oh         1 D1K      -0.720000
     17 C3          -3.6830    -1.3290    -0.3090 c6         1 D1K       0.096300
     18 O3          -4.4120    -2.3880     0.2760 oh         1 D1K      -0.663000
     19 C13         -4.2580     0.0140     0.1360 c6         1 D1K       0.122300
     20 O4          -5.5780     0.1800    -0.3150 oh         1 D1K      -0.717000
     21 C14         -3.4050     1.1400    -0.4500 c6         1 D1K       0.181300
     22 O7          -2.0620     0.9820    -0.0290 os         1 D1K      -0.423000
     23 C15         -3.8640     2.5090     0.0020 c3         1 D1K       0.171600
     24 O6          -3.0850     3.4830    -0.6500 oh         1 D1K      -0.713000
     25 H6           0.4290    -0.3580    -2.1070 h4         1 D1K       0.211000
     26 H7           3.5880    -0.4550    -2.5610 ha         1 D1K       0.148000
     27 H9           6.2170    -1.1570     0.0060 hc         1 D1K       0.061700
     28 H9A          6.1280    -0.5240    -1.6260 hc         1 D1K       0.061700
     29 H1          -1.5180    -0.2880    -1.5400 h2         1 D1K       0.042700
     30 H10          6.0850     1.8120    -0.7150 hc         1 D1K       0.051200
     31 H10A         6.1690     1.1830     0.9180 hc         1 D1K       0.051200
     32 H11          8.3900     0.1290     0.4140 hc         1 D1K       0.034367
     33 H11A         8.3180     0.7650    -1.2280 hc         1 D1K       0.034367
     34 H11B         8.4310     1.8690     0.1400 hc         1 D1K       0.034367
     35 H2          -2.1690    -1.4450     1.2000 h1         1 D1K       0.097700
     36 HO2         -1.9890    -3.3500    -0.0680 ho         1 D1K       0.523000
     37 H3          -3.7430    -1.3800    -1.4060 h1         1 D1K       0.050700
     38 HO3         -4.8520    -2.8880    -0.4160 ho         1 D1K       0.453000
     39 H4          -4.2030     0.0770     1.2340 h1         1 D1K       0.071700
     40 HO4         -6.1100    -0.5310     0.0570 ho         1 D1K       0.518000
     41 H5          -3.4620     1.0880    -1.5500 h1         1 D1K       0.055700
     42 H8          -4.9270     2.6110    -0.2400 h1         1 D1K       0.042700
     43 H6'A        -3.7710     2.5730     1.0940 h1         1 D1K       0.042700
     44 HO6         -3.4200     4.3480    -0.3990 ho         1 D1K       0.507000
@<TRIPOS>BOND
     1     1     2 1   
     2     1     8 1   
     3     1    12 1   
     4     2     3 2   
     5     2     4 1   
     6     4     5 2   
     7     5     6 1   
     8     5     7 1   
     9     6     8 2   
    10     6     9 1   
    11     7    10 1   
    12     8    25 1   
    13     9    10 2   
    14     9    26 1   
    15    10    11 1   
    16    11    13 1   
    17    11    27 1   
    18    11    28 1   
    19    12    15 1   
    20    12    22 1   
    21    12    29 1   
    22    13    14 1   
    23    13    30 1   
    24    13    31 1   
    25    14    32 1   
    26    14    33 1   
    27    14    34 1   
    28    15    16 1   
    29    15    17 1   
    30    15    35 1   
    31    16    36 1   
    32    17    18 1   
    33    17    19 1   
    34    17    37 1   
    35    18    38 1   
    36    19    20 1   
    37    19    21 1   
    38    19    39 1   
    39    20    40 1   
    40    21    22 1   
    41    21    23 1   
    42    21    41 1   
    43    23    24 1   
    44    23    42 1   
    45    23    43 1   
    46    24    44 1   
@<TRIPOS>SUBSTRUCTURE
     1 D1K         1 TEMP              0 ****  ****    0 ROOT
