@<TRIPOS>MOLECULE
D1K
   44    46     1     0     0
SMALL
No Charge or Current Charge


@<TRIPOS>ATOM
      1 N1          -0.1240    -0.2240    -0.0480 n          1 D1K      -0.285000
      2 C2           0.2210    -0.0030     1.3280 c          1 D1K       0.709400
      3 O2          -0.6290     0.1230     2.1980 o          1 D1K      -0.513000
      4 N3           1.5630     0.0310     1.6830 nc         1 D1K      -0.385400
      5 C4           2.4640    -0.1490     0.7520 cd         1 D1K       0.285000
      6 C5           2.1760    -0.3800    -0.5780 cd         1 D1K      -0.270000
      7 O5           3.8060    -0.1560     0.9040 os         1 D1K      -0.261000
      8 C6           0.8790    -0.4230    -1.0120 cc         1 D1K       0.071600
      9 C7           3.3980    -0.5340    -1.2830 cd         1 D1K      -0.140000
     10 C8           4.3990    -0.3860    -0.3260 cc         1 D1K       0.178300
     11 C9           5.8970    -0.4420    -0.4330 c3         1 D1K      -0.113700
     12 C1          -1.5420    -0.1790    -0.4800 c6         1 D1K       0.342700
     13 C10          6.5600     0.9470    -0.3140 c3         1 D1K      -0.073400
     14 C11          8.0950     0.8960    -0.4320 c3         1 D1K      -0.091100
     15 C12         -2.3500    -1.4550    -0.0570 c6         1 D1K       0.116300
     16 O1          -1.8040    -2.6780    -0.6140 oh         1 D1K      -0.720000
     17 C3          -3.8240    -1.2840    -0.5240 c6         1 D1K       0.096300
     18 O3          -4.6190    -2.4050    -0.1000 oh         1 D1K      -0.663000
     19 C13         -4.4190     0.0470     0.0200 c6         1 D1K       0.122300
     20 O4          -5.7740     0.1820    -0.4470 oh         1 D1K      -0.717000
     21 C14         -3.5150     1.2400    -0.4260 c6         1 D1K       0.181300
     22 O7          -2.1560     1.0220     0.0350 os         1 D1K      -0.423000
     23 C15         -4.0100     2.6120     0.1400 c3         1 D1K       0.171600
     24 O6          -3.1550     3.7200    -0.2160 oh         1 D1K      -0.713000
     25 H6           0.5300    -0.5890    -2.0270 h4         1 D1K       0.211000
     26 H7           3.5370    -0.7250    -2.3420 ha         1 D1K       0.148000
     27 H9           6.2910    -1.1010     0.3500 hc         1 D1K       0.061700
     28 H9A          6.1750    -0.8950    -1.3930 hc         1 D1K       0.061700
     29 H1          -1.5500    -0.1200    -1.5780 h2         1 D1K       0.042700
     30 H10          6.1620     1.6070    -1.0950 hc         1 D1K       0.051200
     31 H10A         6.2900     1.3970     0.6510 hc         1 D1K       0.051200
     32 H11          8.5250     0.2700     0.3590 hc         1 D1K       0.034367
     33 H11A         8.3960     0.4840    -1.4030 hc         1 D1K       0.034367
     34 H11B         8.5190     1.9030    -0.3410 hc         1 D1K       0.034367
     35 H2          -2.3500    -1.5050     1.0430 h1         1 D1K       0.097700
     36 HO2         -0.9410    -2.8540    -0.1670 ho         1 D1K       0.523000
     37 H3          -3.8220    -1.2320    -1.6240 h1         1 D1K       0.050700
     38 HO3         -4.0510    -3.1950    -0.2600 ho         1 D1K       0.453000
     39 H4          -4.4070     0.0060     1.1210 h1         1 D1K       0.071700
     40 HO4         -6.1380    -0.7370    -0.4190 ho         1 D1K       0.518000
     41 H5          -3.5090     1.3040    -1.5240 h1         1 D1K       0.055700
     42 H8          -5.0270     2.7900    -0.2350 h1         1 D1K       0.042700
     43 H6'A        -4.0780     2.5230     1.2330 h1         1 D1K       0.042700
     44 HO6         -3.5170     4.5190     0.2350 ho         1 D1K       0.507000
@<TRIPOS>BOND
     1     1     2 1   
     2     1     8 1   
     3     1    12 1   
     4     2     3 2   
     5     2     4 1   
     6     4     5 2   
     7     5     6 1   
     8     5     7 1   
     9     6     8 2   
    10     6     9 1   
    11     7    10 1   
    12     8    25 1   
    13     9    10 2   
    14     9    26 1   
    15    10    11 1   
    16    11    13 1   
    17    11    27 1   
    18    11    28 1   
    19    12    15 1   
    20    12    22 1   
    21    12    29 1   
    22    13    14 1   
    23    13    30 1   
    24    13    31 1   
    25    14    32 1   
    26    14    33 1   
    27    14    34 1   
    28    15    16 1   
    29    15    17 1   
    30    15    35 1   
    31    16    36 1   
    32    17    18 1   
    33    17    19 1   
    34    17    37 1   
    35    18    38 1   
    36    19    20 1   
    37    19    21 1   
    38    19    39 1   
    39    20    40 1   
    40    21    22 1   
    41    21    23 1   
    42    21    41 1   
    43    23    24 1   
    44    23    42 1   
    45    23    43 1   
    46    24    44 1   
@<TRIPOS>SUBSTRUCTURE
     1 D1K         1 TEMP              0 ****  ****    0 ROOT
