@<TRIPOS>MOLECULE
D1L
   32    33     1     0     0
SMALL
No Charge or Current Charge


@<TRIPOS>ATOM
      1 O1A         -0.4480    -0.4590     7.3980 o          1 D1L      -0.705000
      2 C1          -0.5910    -1.0430     6.3310 c          1 D1L       0.731000
      3 O1B         -1.0930    -2.1580     6.2490 o          1 D1L      -0.705000
      4 C2          -0.1640    -0.2930     5.0240 c3         1 D1L       0.012300
      5 C2A          1.3700    -0.0680     4.9800 c3         1 D1L      -0.097100
      6 O2          -0.5420    -1.0260     3.8280 os         1 D1L      -0.290100
      7 C3          -0.5730    -0.4680     2.5630 ca         1 D1L       0.196100
      8 C4          -0.7670    -1.3360     1.4750 ca         1 D1L      -0.189000
      9 C5          -0.8180    -0.8380     0.1610 ca         1 D1L      -0.074500
     10 C6          -0.4470     0.9190     2.3280 ca         1 D1L      -0.189000
     11 C7          -0.4970     1.4200     1.0140 ca         1 D1L      -0.074500
     12 C8          -0.6700     0.5440    -0.0700 ca         1 D1L      -0.011900
     13 O8          -0.7280     1.0640    -1.3440 os         1 D1L      -0.223200
     14 C9          -0.1980     0.4190    -2.4430 ca         1 D1L       0.164100
     15 C10          1.0450    -0.2410    -2.3550 ca         1 D1L      -0.171000
     16 C11          1.5830    -0.8830    -3.4850 ca         1 D1L      -0.066000
     17 C12          0.8840    -0.8600    -4.7040 ca         1 D1L       0.077000
     18 Cl12         1.5570    -1.6630    -6.1160 cl         1 D1L      -0.215000
     19 C13         -0.3490    -0.1930    -4.8000 ca         1 D1L      -0.072000
     20 C14         -0.8900     0.4500    -3.6720 ca         1 D1L       0.075000
     21 Cl14        -2.4390     1.2810    -3.8170 cl         1 D1L      -0.182000
     22 H2          -0.6750     0.6770     5.0550 h1         1 D1L       0.029700
     23 H2A1         1.9000    -1.0280     4.9930 hc         1 D1L       0.029033
     24 H2A2         1.6720     0.4790     4.0800 hc         1 D1L       0.029033
     25 H2A3         1.6980     0.5140     5.8490 hc         1 D1L       0.029033
     26 H4          -0.8790    -2.4030     1.6540 ha         1 D1L       0.131000
     27 H5          -0.9770    -1.5230    -0.6680 ha         1 D1L       0.113000
     28 H6          -0.3130     1.6200     3.1460 ha         1 D1L       0.131000
     29 H7          -0.3990     2.4890     0.8360 ha         1 D1L       0.113000
     30 H10          1.5940    -0.2520    -1.4160 ha         1 D1L       0.145000
     31 H11          2.5400    -1.3950    -3.4190 ha         1 D1L       0.128000
     32 H13         -0.8850    -0.1740    -5.7450 ha         1 D1L       0.134000
@<TRIPOS>BOND
     1     1     2 1   
     2     2     3 1   
     3     2     4 1   
     4     4     5 1   
     5     4     6 1   
     6     4    22 1   
     7     5    23 1   
     8     5    24 1   
     9     5    25 1   
    10     6     7 1   
    11     7     8 ar  
    12     7    10 ar  
    13     8     9 ar  
    14     8    26 1   
    15     9    12 ar  
    16     9    27 1   
    17    10    11 ar  
    18    10    28 1   
    19    11    12 ar  
    20    11    29 1   
    21    12    13 1   
    22    13    14 1   
    23    14    15 ar  
    24    14    20 ar  
    25    15    16 ar  
    26    15    30 1   
    27    16    17 ar  
    28    16    31 1   
    29    17    18 1   
    30    17    19 ar  
    31    19    20 ar  
    32    19    32 1   
    33    20    21 1   
@<TRIPOS>SUBSTRUCTURE
     1 D1L         1 TEMP              0 ****  ****    0 ROOT
