@<TRIPOS>MOLECULE
D1L
   32    33     1     0     0
SMALL
abcg2


@<TRIPOS>ATOM
      1 O1A          0.0890    -0.0410     7.1780 o          1 D1L      -0.705000
      2 C1          -0.4330    -0.6480     6.2230 c          1 D1L       0.731000
      3 O1B         -1.2830    -1.5490     6.2680 o          1 D1L      -0.705000
      4 C2           0.0560    -0.1760     4.8340 c3         1 D1L       0.012300
      5 C2A          1.5740    -0.2130     4.7330 c3         1 D1L      -0.097100
      6 O2          -0.5390    -0.9980     3.8370 os         1 D1L      -0.290100
      7 C3          -0.6700    -0.5600     2.5780 ca         1 D1L       0.196100
      8 C4          -1.2590    -1.4560     1.6790 ca         1 D1L      -0.189000
      9 C5          -1.4720    -1.1050     0.3610 ca         1 D1L      -0.074500
     10 C6          -0.2920     0.7000     2.1140 ca         1 D1L      -0.189000
     11 C7          -0.5080     1.0510     0.7870 ca         1 D1L      -0.074500
     12 C8          -1.0980     0.1560    -0.0840 ca         1 D1L      -0.011900
     13 O8          -1.3550     0.5300    -1.3860 os         1 D1L      -0.223200
     14 C9          -0.4690     0.1980    -2.3480 ca         1 D1L       0.164100
     15 C10          0.7660    -0.3900    -2.1090 ca         1 D1L      -0.171000
     16 C11          1.6210    -0.6890    -3.1590 ca         1 D1L      -0.066000
     17 C12          1.2390    -0.3990    -4.4570 ca         1 D1L       0.077000
     18 CL12         2.2990    -0.7690    -5.7740 cl         1 D1L      -0.215000
     19 C13          0.0100     0.1870    -4.7190 ca         1 D1L      -0.072000
     20 C14         -0.8360     0.4810    -3.6650 ca         1 D1L       0.075000
     21 CL14        -2.3650     1.2080    -3.9730 cl         1 D1L      -0.182000
     22 H2          -0.2930     0.8590     4.7150 h1         1 D1L       0.029700
     23 H2A1         1.9520    -1.2190     4.9250 hc         1 D1L       0.029033
     24 H2A2         1.9320     0.0940     3.7500 hc         1 D1L       0.029033
     25 H2A3         2.0100     0.4570     5.4700 hc         1 D1L       0.029033
     26 H4          -1.5600    -2.4350     2.0300 ha         1 D1L       0.131000
     27 H5          -1.9380    -1.8090    -0.3160 ha         1 D1L       0.113000
     28 H6           0.1720     1.4310     2.7620 ha         1 D1L       0.131000
     29 H7          -0.2110     2.0330     0.4410 ha         1 D1L       0.113000
     30 H10          1.0790    -0.6210    -1.1000 ha         1 D1L       0.145000
     31 H11          2.5780    -1.1470    -2.9540 ha         1 D1L       0.128000
     32 H13         -0.2930     0.4120    -5.7310 ha         1 D1L       0.134000
@<TRIPOS>BOND
     1     1     2 1   
     2     2     3 1   
     3     2     4 1   
     4     4     5 1   
     5     4     6 1   
     6     4    22 1   
     7     5    23 1   
     8     5    24 1   
     9     5    25 1   
    10     6     7 1   
    11     7     8 ar  
    12     7    10 ar  
    13     8     9 ar  
    14     8    26 1   
    15     9    12 ar  
    16     9    27 1   
    17    10    11 ar  
    18    10    28 1   
    19    11    12 ar  
    20    11    29 1   
    21    12    13 1   
    22    13    14 1   
    23    14    15 ar  
    24    14    20 ar  
    25    15    16 ar  
    26    15    30 1   
    27    16    17 ar  
    28    16    31 1   
    29    17    18 1   
    30    17    19 ar  
    31    19    20 ar  
    32    19    32 1   
    33    20    21 1   
@<TRIPOS>SUBSTRUCTURE
     1 D1L         1 TEMP              0 ****  ****    0 ROOT
