@<TRIPOS>MOLECULE
D1M
   35    36     1     0     0
SMALL
bcc


@<TRIPOS>ATOM
      1 N1           0.9230    -0.0110     0.0870 n          1 D1M      -0.357000
      2 C2           1.2320     0.1640     1.4290 c          1 D1M       0.838500
      3 O2           0.4000     0.1940     2.3040 o          1 D1M      -0.615500
      4 N3           2.5700     0.3000     1.6900 ns         1 D1M      -0.603500
      5 C4           3.6270     0.2800     0.8010 c          1 D1M       0.742700
      6 O4           4.7720     0.4060     1.1790 o          1 D1M      -0.586500
      7 C5           3.2140     0.0980    -0.5810 cc         1 D1M      -0.131900
      8 C6           1.8970    -0.0380    -0.8580 cd         1 D1M       0.086600
      9 C7           4.2000     0.0670    -1.5990 cg         1 D1M      -0.143300
     10 C8           5.0430     0.0440    -2.4580 c1         1 D1M      -0.127500
     11 C1          -0.4610    -0.2030    -0.3280 c6         1 D1M       0.332500
     12 C9          -1.0870    -1.4740     0.2410 c6         1 D1M       0.107100
     13 O1          -0.2800    -2.5400    -0.1800 oh         1 D1M      -0.592800
     14 C3          -2.5070    -1.5570    -0.3020 c6         1 D1M       0.080100
     15 O3          -3.1140    -2.6890     0.2760 oh         1 D1M      -0.599800
     16 C10         -3.2750    -0.2730     0.0160 c6         1 D1M       0.084100
     17 O7          -4.5440    -0.2870    -0.5960 oh         1 D1M      -0.596800
     18 C11         -2.5020     0.9370    -0.5150 c6         1 D1M       0.155100
     19 O5          -1.1840     0.9330     0.0100 os         1 D1M      -0.384600
     20 C12         -3.1460     2.2460    -0.1130 c3         1 D1M       0.148400
     21 O6          -2.4430     3.3030    -0.7210 oh         1 D1M      -0.586800
     22 HN3          2.8040     0.4260     2.6680 hn         1 D1M       0.344500
     23 H6           1.5590    -0.1730    -1.8760 h4         1 D1M       0.163000
     24 H8           5.7870     0.0190    -3.2200 ha         1 D1M       0.171500
     25 H1          -0.4190    -0.3200    -1.4200 h2         1 D1M       0.053700
     26 H2          -1.1380    -1.4110     1.3330 h1         1 D1M       0.089700
     27 HO2         -0.6740    -3.3600     0.1380 ho         1 D1M       0.429000
     28 H3          -2.4550    -1.6620    -1.3970 h1         1 D1M       0.052700
     29 HO3         -3.8340    -2.9810    -0.2920 ho         1 D1M       0.416000
     30 H4          -3.3640    -0.1760     1.1070 h1         1 D1M       0.066700
     31 HO4         -5.1650    -0.7260    -0.0090 ho         1 D1M       0.416000
     32 H5          -2.4630     0.8760    -1.6150 h1         1 D1M       0.062700
     33 H7          -4.1940     2.2200    -0.4270 h1         1 D1M       0.038700
     34 H6'A        -3.1370     2.3240     0.9830 h1         1 D1M       0.038700
     35 HO6         -2.9130     4.1190    -0.5300 ho         1 D1M       0.409000
@<TRIPOS>BOND
     1     1     2 1   
     2     1     8 1   
     3     1    11 1   
     4     2     3 2   
     5     2     4 1   
     6     4     5 1   
     7     4    22 1   
     8     5     6 2   
     9     5     7 1   
    10     7     8 2   
    11     7     9 1   
    12     8    23 1   
    13     9    10 3   
    14    10    24 1   
    15    11    12 1   
    16    11    19 1   
    17    11    25 1   
    18    12    13 1   
    19    12    14 1   
    20    12    26 1   
    21    13    27 1   
    22    14    15 1   
    23    14    16 1   
    24    14    28 1   
    25    15    29 1   
    26    16    17 1   
    27    16    18 1   
    28    16    30 1   
    29    17    31 1   
    30    18    19 1   
    31    18    20 1   
    32    18    32 1   
    33    20    21 1   
    34    20    33 1   
    35    20    34 1   
    36    21    35 1   
@<TRIPOS>SUBSTRUCTURE
     1 D1M         1 TEMP              0 ****  ****    0 ROOT
