@<TRIPOS>MOLECULE
D1M
   35    36     1     0     0
SMALL
No Charge or Current Charge


@<TRIPOS>ATOM
      1 N1           0.9940    -0.0210     0.0210 n          1 D1M      -0.290000
      2 C2           1.2760     0.3370     1.3560 c          1 D1M       0.629000
      3 O2           0.4340     0.4200     2.2350 o          1 D1M      -0.540000
      4 N3           2.5830     0.5690     1.6500 ns         1 D1M      -0.469500
      5 C4           3.6640     0.4870     0.8290 c          1 D1M       0.600200
      6 O4           4.7870     0.7300     1.2490 o          1 D1M      -0.511000
      7 C5           3.3340     0.0830    -0.5610 cc         1 D1M      -0.131900
      8 C6           2.0240    -0.1570    -0.9130 cd         1 D1M       0.036600
      9 C7           4.3980    -0.0450    -1.5020 cg         1 D1M      -0.143300
     10 C8           5.2810    -0.1620    -2.3280 c1         1 D1M      -0.215000
     11 C1          -0.4040    -0.2240    -0.4360 c6         1 D1M       0.355700
     12 C9          -1.0180    -1.5700     0.0740 c6         1 D1M       0.130300
     13 O1          -0.2910    -2.7310    -0.3870 oh         1 D1M      -0.715000
     14 C3          -2.4950    -1.6650    -0.4020 c6         1 D1M       0.103300
     15 O3          -3.1120    -2.8600     0.1040 oh         1 D1M      -0.662000
     16 C10         -3.2980    -0.4050     0.0420 c6         1 D1M       0.107300
     17 O7          -4.6570    -0.5110    -0.4400 oh         1 D1M      -0.719000
     18 C11         -2.5740     0.8750    -0.4970 c6         1 D1M       0.178300
     19 O5          -1.2040     0.9020    -0.0170 os         1 D1M      -0.431000
     20 C12         -3.2690     2.2050    -0.0520 c3         1 D1M       0.171600
     21 O6          -2.5770     3.3890    -0.5010 oh         1 D1M      -0.709000
     22 HN3          2.7750     0.8280     2.6040 hn         1 D1M       0.344500
     23 H6           1.7080    -0.4580    -1.9080 h4         1 D1M       0.213000
     24 H8           6.0660    -0.2640    -3.0510 ha         1 D1M       0.259000
     25 H1          -0.3980    -0.2480    -1.5360 h2         1 D1M       0.053700
     26 H2          -1.0190    -1.5420     1.1750 h1         1 D1M       0.089700
     27 HO2         -0.9270    -3.4810    -0.2860 ho         1 D1M       0.528000
     28 H3          -2.4960    -1.6900    -1.5030 h1         1 D1M       0.052700
     29 HO3         -4.0790    -2.7250    -0.0310 ho         1 D1M       0.455000
     30 H4          -3.2900    -0.3640     1.1430 h1         1 D1M       0.066700
     31 HO4         -5.2440    -0.0440     0.2020 ho         1 D1M       0.515000
     32 H5          -2.5620     0.8500    -1.5970 h1         1 D1M       0.062700
     33 H7          -4.2950     2.2040    -0.4430 h1         1 D1M       0.038700
     34 H6'A        -3.3380     2.2020     1.0450 h1         1 D1M       0.038700
     35 HO6         -3.0480     4.1630    -0.1120 ho         1 D1M       0.508000
@<TRIPOS>BOND
     1     1     2 1   
     2     1     8 1   
     3     1    11 1   
     4     2     3 2   
     5     2     4 1   
     6     4     5 1   
     7     4    22 1   
     8     5     6 2   
     9     5     7 1   
    10     7     8 2   
    11     7     9 1   
    12     8    23 1   
    13     9    10 3   
    14    10    24 1   
    15    11    12 1   
    16    11    19 1   
    17    11    25 1   
    18    12    13 1   
    19    12    14 1   
    20    12    26 1   
    21    13    27 1   
    22    14    15 1   
    23    14    16 1   
    24    14    28 1   
    25    15    29 1   
    26    16    17 1   
    27    16    18 1   
    28    16    30 1   
    29    17    31 1   
    30    18    19 1   
    31    18    20 1   
    32    18    32 1   
    33    20    21 1   
    34    20    33 1   
    35    20    34 1   
    36    21    35 1   
@<TRIPOS>SUBSTRUCTURE
     1 D1M         1 TEMP              0 ****  ****    0 ROOT
