@<TRIPOS>MOLECULE
D1N
   20    21     1     0     0
SMALL
abcg2


@<TRIPOS>ATOM
      1 O2           5.2150    -4.4040    -0.7980 oh         1 D1N      -0.560100
      2 C2           3.9120    -4.1950    -0.4870 ca         1 D1N       0.020100
      3 C3           3.0400    -5.2350    -0.1220 ca         1 D1N      -0.138000
      4 C4           1.7320    -4.9750     0.1870 ca         1 D1N      -0.102000
      5 C5           1.2380    -3.6540     0.1430 ca         1 D1N      -0.033000
      6 C10          2.1120    -2.5960    -0.2260 ca         1 D1N      -0.033000
      7 C1           3.4590    -2.8930    -0.5420 ca         1 D1N       0.127100
      8 O1           4.2660    -1.8680    -0.8910 oh         1 D1N      -0.534100
      9 C9           1.6050    -1.2720    -0.2730 ca         1 D1N      -0.077000
     10 C8           0.2960    -1.0180     0.0340 ca         1 D1N      -0.117000
     11 C7          -0.5740    -2.0670     0.4010 ca         1 D1N      -0.102000
     12 C6          -0.1100    -3.3520     0.4540 ca         1 D1N      -0.103000
     13 HO2          5.4150    -5.3450    -0.8220 ho         1 D1N       0.473000
     14 H3           3.4150    -6.2520    -0.0870 ha         1 D1N       0.112000
     15 H4           1.0690    -5.7850     0.4650 ha         1 D1N       0.118000
     16 HO1          5.1380    -2.1950    -1.1390 ho         1 D1N       0.482000
     17 H9           2.2550    -0.4540    -0.5520 ha         1 D1N       0.129000
     18 H8          -0.0770    -0.0030    -0.0060 ha         1 D1N       0.113000
     19 H7          -1.6070    -1.8490     0.6400 ha         1 D1N       0.113000
     20 H6          -0.7730    -4.1620     0.7330 ha         1 D1N       0.112000
@<TRIPOS>BOND
     1     1     2 1   
     2     1    13 1   
     3     2     3 ar  
     4     2     7 ar  
     5     3     4 ar  
     6     3    14 1   
     7     4     5 ar  
     8     4    15 1   
     9     5     6 ar  
    10     5    12 ar  
    11     6     7 ar  
    12     6     9 ar  
    13     7     8 1   
    14     8    16 1   
    15     9    10 ar  
    16     9    17 1   
    17    10    11 ar  
    18    10    18 1   
    19    11    12 ar  
    20    11    19 1   
    21    12    20 1   
@<TRIPOS>SUBSTRUCTURE
     1 D1N         1 TEMP              0 ****  ****    0 ROOT
