@<TRIPOS>MOLECULE
D1N
   20    21     1     0     0
SMALL
No Charge or Current Charge


@<TRIPOS>ATOM
      1 O2           5.2400    -4.4390    -0.8290 oh         1 D1N      -0.560100
      2 C2           3.9320    -4.1750    -0.5140 ca         1 D1N       0.020100
      3 C3           3.0730    -5.2230    -0.1460 ca         1 D1N      -0.138000
      4 C4           1.7330    -4.9520     0.1760 ca         1 D1N      -0.102000
      5 C5           1.2440    -3.6320     0.1310 ca         1 D1N      -0.033000
      6 C10          2.1020    -2.5690    -0.2390 ca         1 D1N      -0.033000
      7 C1           3.4510    -2.8500    -0.5620 ca         1 D1N       0.127100
      8 O1           4.3240    -1.8620    -0.9260 oh         1 D1N      -0.534100
      9 C9           1.5930    -1.2510    -0.2780 ca         1 D1N      -0.077000
     10 C8           0.2490    -1.0000     0.0480 ca         1 D1N      -0.117000
     11 C7          -0.5980    -2.0580     0.4140 ca         1 D1N      -0.102000
     12 C6          -0.1020    -3.3720     0.4560 ca         1 D1N      -0.103000
     13 HO2          5.4020    -5.4050    -0.7430 ho         1 D1N       0.473000
     14 H3           3.4360    -6.2480    -0.1060 ha         1 D1N       0.112000
     15 H4           1.0740    -5.7690     0.4610 ha         1 D1N       0.118000
     16 HO1          5.1790    -2.3190    -1.0940 ho         1 D1N       0.482000
     17 H9           2.2330    -0.4180    -0.5600 ha         1 D1N       0.129000
     18 H8          -0.1360     0.0170     0.0150 ha         1 D1N       0.113000
     19 H7          -1.6380    -1.8620     0.6660 ha         1 D1N       0.113000
     20 H6          -0.7640    -4.1860     0.7410 ha         1 D1N       0.112000
@<TRIPOS>BOND
     1     1     2 1   
     2     1    13 1   
     3     2     3 ar  
     4     2     7 ar  
     5     3     4 ar  
     6     3    14 1   
     7     4     5 ar  
     8     4    15 1   
     9     5     6 ar  
    10     5    12 ar  
    11     6     7 ar  
    12     6     9 ar  
    13     7     8 1   
    14     8    16 1   
    15     9    10 ar  
    16     9    17 1   
    17    10    11 ar  
    18    10    18 1   
    19    11    12 ar  
    20    11    19 1   
    21    12    20 1   
@<TRIPOS>SUBSTRUCTURE
     1 D1N         1 TEMP              0 ****  ****    0 ROOT
