@<TRIPOS>MOLECULE
D1Q
   62    65     1     0     0
SMALL
bcc


@<TRIPOS>ATOM
      1 C1          -3.6660     0.5600     0.8710 ca         1 D1Q      -0.168000
      2 C2          -4.3340     1.7730     0.7820 ca         1 D1Q      -0.096000
      3 C3          -4.5090     2.3860    -0.4460 ca         1 D1Q      -0.013600
      4 C4          -4.0440     1.7810    -1.6030 ca         1 D1Q      -0.096000
      5 C5          -3.3760     0.5750    -1.5150 ca         1 D1Q      -0.168000
      6 C6          -3.1570    -0.0420    -0.2810 ca         1 D1Q       0.095600
      7 CL7         -5.3000     3.9260    -0.5390 cl         1 D1Q      -0.128400
      8 N8          -2.4010    -1.2150    -0.2940 ns         1 D1Q      -0.471100
      9 C9          -1.9400    -1.9540     0.7480 c          1 D1Q       0.675100
     10 C10         -0.9960    -3.0650     0.3440 c3         1 D1Q      -0.161400
     11 C11          0.1580    -3.2280     1.3490 c3         1 D1Q      -0.009100
     12 C12          1.3820    -3.8240     0.7130 ca         1 D1Q      -0.149300
     13 C13          2.2710    -3.0250    -0.0180 ca         1 D1Q       0.015600
     14 C14          3.4080    -3.5740    -0.5960 ca         1 D1Q      -0.094000
     15 C15          3.6940    -4.9280    -0.4590 ca         1 D1Q      -0.115600
     16 C16          2.8080    -5.7260     0.2570 ca         1 D1Q      -0.110000
     17 C17          1.6690    -5.1790     0.8270 ca         1 D1Q      -0.140000
     18 O18         -2.2330    -1.7490     1.9120 o          1 D1Q      -0.584100
     19 N19          1.9760    -1.6540    -0.1610 ns         1 D1Q      -0.453100
     20 C20          2.8220    -0.6300     0.0710 c          1 D1Q       0.590600
     21 C21          2.1580     0.6930     0.0060 cc         1 D1Q       0.355900
     22 O22          4.0080    -0.7200     0.3280 o          1 D1Q      -0.567100
     23 C23          4.9470    -5.5190    -1.0940 c          1 D1Q       0.923200
     24 O24          5.1170    -6.7440    -0.9490 o          1 D1Q      -0.818800
     25 O25          5.6910    -4.7270    -1.7040 o          1 D1Q      -0.818800
     26 N26          0.8920     0.8820    -0.1970 nd         1 D1Q      -0.643000
     27 C27          0.5860     2.2060    -0.1590 cd         1 D1Q       0.361600
     28 C28          1.6430     3.0360     0.0730 cc         1 D1Q      -0.192700
     29 S29          3.0790     2.1220     0.2590 ss         1 D1Q      -0.053300
     30 C30          1.5480     4.5250     0.1490 c6         1 D1Q       0.253100
     31 N31          0.2840     4.9630    -0.4210 n3         1 D1Q      -0.717600
     32 C32         -0.8140     4.1940     0.1540 c6         1 D1Q       0.164800
     33 C33         -0.7880     2.7510    -0.3280 c6         1 D1Q      -0.100700
     34 C34          0.0570     6.4100    -0.2970 c3         1 D1Q       0.187500
     35 C35          1.3210     7.2250    -0.5530 c3         1 D1Q      -0.091600
     36 C36         -1.0190     6.8590    -1.2820 c3         1 D1Q      -0.091600
     37 H1          -3.5340     0.1110     1.8410 ha         1 D1Q       0.154500
     38 H2          -4.7070     2.2380     1.6850 ha         1 D1Q       0.143000
     39 H4          -4.1850     2.2480    -2.5690 ha         1 D1Q       0.143000
     40 H5          -2.9940     0.1210    -2.4210 ha         1 D1Q       0.154500
     41 HN8         -2.0910    -1.5020    -1.2100 hn         1 D1Q       0.322500
     42 H10         -1.5640    -3.9980     0.2880 hc         1 D1Q       0.063200
     43 H10A        -0.6170    -2.9020    -0.6680 hc         1 D1Q       0.063200
     44 H11          0.4170    -2.2610     1.7870 hc         1 D1Q       0.053700
     45 H11A        -0.1670    -3.8560     2.1780 hc         1 D1Q       0.053700
     46 H14          4.0780    -2.9510    -1.1710 ha         1 D1Q       0.168000
     47 H16          3.0140    -6.7820     0.3710 ha         1 D1Q       0.150000
     48 H17          0.9930    -5.8120     1.3900 ha         1 D1Q       0.107000
     49 HN19         1.0150    -1.3840    -0.3200 hn         1 D1Q       0.325500
     50 H30          1.6730     4.8390     1.2000 h1         1 D1Q       0.041700
     51 H30A         2.3770     4.9640    -0.4060 h1         1 D1Q       0.041700
     52 H32         -0.7820     4.2190     1.2570 h1         1 D1Q       0.035700
     53 H32A        -1.7660     4.6360    -0.1360 h1         1 D1Q       0.035700
     54 H33         -1.0950     2.6940    -1.3750 hc         1 D1Q       0.065700
     55 H33A        -1.5040     2.1590     0.2430 hc         1 D1Q       0.065700
     56 H34         -0.2840     6.6430     0.7270 h1         1 D1Q       0.018700
     57 H35          1.0690     8.2850    -0.5590 hc         1 D1Q       0.037200
     58 H35A         2.0820     7.0810     0.2120 hc         1 D1Q       0.037200
     59 H35B         1.7580     6.9810    -1.5240 hc         1 D1Q       0.037200
     60 H36         -1.9710     6.3460    -1.1460 hc         1 D1Q       0.037200
     61 H36A        -1.2120     7.9250    -1.1630 hc         1 D1Q       0.037200
     62 H36B        -0.6890     6.6860    -2.3080 hc         1 D1Q       0.037200
@<TRIPOS>BOND
     1     1     2 ar  
     2     1     6 ar  
     3     1    37 1   
     4     2     3 ar  
     5     2    38 1   
     6     3     4 ar  
     7     3     7 1   
     8     4     5 ar  
     9     4    39 1   
    10     5     6 ar  
    11     5    40 1   
    12     6     8 1   
    13     8     9 1   
    14     8    41 1   
    15     9    10 1   
    16     9    18 2   
    17    10    11 1   
    18    10    42 1   
    19    10    43 1   
    20    11    12 1   
    21    11    44 1   
    22    11    45 1   
    23    12    13 ar  
    24    12    17 ar  
    25    13    14 ar  
    26    13    19 1   
    27    14    15 ar  
    28    14    46 1   
    29    15    16 ar  
    30    15    23 1   
    31    16    17 ar  
    32    16    47 1   
    33    17    48 1   
    34    19    20 1   
    35    19    49 1   
    36    20    21 1   
    37    20    22 2   
    38    21    26 2   
    39    21    29 1   
    40    23    24 1   
    41    23    25 1   
    42    26    27 1   
    43    27    28 2   
    44    27    33 1   
    45    28    29 1   
    46    28    30 1   
    47    30    31 1   
    48    30    50 1   
    49    30    51 1   
    50    31    32 1   
    51    31    34 1   
    52    32    33 1   
    53    32    52 1   
    54    32    53 1   
    55    33    54 1   
    56    33    55 1   
    57    34    35 1   
    58    34    36 1   
    59    34    56 1   
    60    35    57 1   
    61    35    58 1   
    62    35    59 1   
    63    36    60 1   
    64    36    61 1   
    65    36    62 1   
@<TRIPOS>SUBSTRUCTURE
     1 D1Q         1 TEMP              0 ****  ****    0 ROOT
