@<TRIPOS>MOLECULE
D1Q
   62    65     1     0     0
SMALL
No Charge or Current Charge


@<TRIPOS>ATOM
      1 C1          -3.7930     0.4320     0.7630 ca         1 D1Q      -0.150000
      2 C2          -4.6090     1.5770     0.8080 ca         1 D1Q      -0.078000
      3 C3          -4.7300     2.3990    -0.3240 ca         1 D1Q       0.078000
      4 C4          -4.0390     2.0780    -1.5030 ca         1 D1Q      -0.078000
      5 C5          -3.2210     0.9350    -1.5470 ca         1 D1Q      -0.150000
      6 C6          -3.0930     0.1040    -0.4170 ca         1 D1Q       0.003000
      7 Cl7         -5.7400     3.8370    -0.2630 cl         1 D1Q      -0.220000
      8 N8          -2.2190    -1.0100    -0.4990 ns         1 D1Q      -0.145000
      9 C9          -2.1700    -2.1880     0.2310 c          1 D1Q       0.608100
     10 C10         -0.9770    -3.0900    -0.1080 c3         1 D1Q      -0.161400
     11 C11         -0.0030    -3.2240     1.0850 c3         1 D1Q      -0.009100
     12 C12          1.3270    -3.8570     0.6690 ca         1 D1Q      -0.149300
     13 C13          2.4030    -3.0750     0.1820 ca         1 D1Q      -0.077000
     14 C14          3.6070    -3.7130    -0.1970 ca         1 D1Q      -0.076000
     15 C15          3.7590    -5.1150    -0.0920 ca         1 D1Q      -0.115600
     16 C16          2.6760    -5.8750     0.4000 ca         1 D1Q      -0.092000
     17 C17          1.4760    -5.2520     0.7720 ca         1 D1Q      -0.122000
     18 O18         -3.0190    -2.5210     1.0510 o          1 D1Q      -0.584100
     19 N19          2.2200    -1.6650     0.0770 ns         1 D1Q      -0.127000
     20 C20          3.0960    -0.6040    -0.1310 c          1 D1Q       0.523600
     21 C21          2.3780     0.7120    -0.1450 cc         1 D1Q       0.355900
     22 O22          4.3120    -0.7340    -0.2660 o          1 D1Q      -0.567100
     23 C23          5.0590    -5.7910    -0.5050 c          1 D1Q       0.712600
     24 O24          5.1530    -7.0050    -0.3820 o          1 D1Q      -0.713500
     25 O25          5.9660    -5.1000    -0.9470 o          1 D1Q      -0.713500
     26 N26          1.0550     0.8710     0.0030 nd         1 D1Q      -0.643000
     27 C27          0.7410     2.2200    -0.0220 cd         1 D1Q       0.296300
     28 C28          1.8060     3.0640    -0.1870 cc         1 D1Q      -0.272300
     29 S29          3.2980     2.1870    -0.3400 ss         1 D1Q       0.091600
     30 C30          1.6890     4.5640    -0.2010 c6         1 D1Q       0.253100
     31 N31          0.2760     5.0080    -0.4270 n3         1 D1Q      -0.717600
     32 C32         -0.6570     4.2440     0.4580 c6         1 D1Q       0.164800
     33 C33         -0.6570     2.7430     0.1100 c6         1 D1Q      -0.100700
     34 C34          0.1100     6.4970    -0.3470 c3         1 D1Q       0.187500
     35 C35          1.0850     7.2690    -1.2750 c3         1 D1Q      -0.091600
     36 C36         -1.3370     6.9690    -0.6500 c3         1 D1Q      -0.091600
     37 H1          -3.6950    -0.1760     1.6590 ha         1 D1Q       0.136500
     38 H2          -5.1410     1.8320     1.7210 ha         1 D1Q       0.125000
     39 H4          -4.1300     2.7170    -2.3770 ha         1 D1Q       0.125000
     40 H5          -2.6800     0.6990    -2.4610 ha         1 D1Q       0.136500
     41 HN8         -1.4850    -0.9100    -1.1880 hn         1 D1Q       0.156000
     42 H10         -1.3500    -4.0890    -0.3630 hc         1 D1Q       0.063200
     43 H10A        -0.4350    -2.6810    -0.9690 hc         1 D1Q       0.063200
     44 H11          0.1590    -2.2400     1.5430 hc         1 D1Q       0.053700
     45 H11A        -0.4820    -3.8280     1.8670 hc         1 D1Q       0.053700
     46 H14          4.4340    -3.1300    -0.5900 ha         1 D1Q       0.150000
     47 H16          2.7580    -6.9560     0.4920 ha         1 D1Q       0.132000
     48 H17          0.6540    -5.8610     1.1430 ha         1 D1Q       0.089000
     49 HN19         1.2580    -1.3720     0.1920 hn         1 D1Q       0.159000
     50 H30          2.0620     4.9660     0.7540 h1         1 D1Q       0.041700
     51 H30A         2.3470     4.9540    -0.9910 h1         1 D1Q       0.041700
     52 H32         -0.3700     4.3740     1.5130 h1         1 D1Q       0.035700
     53 H32A        -1.6940     4.5900     0.3610 h1         1 D1Q       0.035700
     54 H33         -1.1800     2.6030    -0.8430 hc         1 D1Q       0.065700
     55 H33A        -1.2180     2.1820     0.8680 hc         1 D1Q       0.065700
     56 H34          0.3360     6.8170     0.6800 h1         1 D1Q       0.018700
     57 H35          0.8690     8.3440    -1.2590 hc         1 D1Q       0.037200
     58 H35A         2.1250     7.1530    -0.9520 hc         1 D1Q       0.037200
     59 H35B         0.9970     6.9180    -2.3100 hc         1 D1Q       0.037200
     60 H36         -2.0320     6.6790     0.1450 hc         1 D1Q       0.037200
     61 H36A        -1.3850     8.0620    -0.7200 hc         1 D1Q       0.037200
     62 H36B        -1.6920     6.5510    -1.5990 hc         1 D1Q       0.037200
@<TRIPOS>BOND
     1     1     2 ar  
     2     1     6 ar  
     3     1    37 1   
     4     2     3 ar  
     5     2    38 1   
     6     3     4 ar  
     7     3     7 1   
     8     4     5 ar  
     9     4    39 1   
    10     5     6 ar  
    11     5    40 1   
    12     6     8 1   
    13     8     9 1   
    14     8    41 1   
    15     9    10 1   
    16     9    18 2   
    17    10    11 1   
    18    10    42 1   
    19    10    43 1   
    20    11    12 1   
    21    11    44 1   
    22    11    45 1   
    23    12    13 ar  
    24    12    17 ar  
    25    13    14 ar  
    26    13    19 1   
    27    14    15 ar  
    28    14    46 1   
    29    15    16 ar  
    30    15    23 1   
    31    16    17 ar  
    32    16    47 1   
    33    17    48 1   
    34    19    20 1   
    35    19    49 1   
    36    20    21 1   
    37    20    22 2   
    38    21    26 2   
    39    21    29 1   
    40    23    24 1   
    41    23    25 1   
    42    26    27 1   
    43    27    28 2   
    44    27    33 1   
    45    28    29 1   
    46    28    30 1   
    47    30    31 1   
    48    30    50 1   
    49    30    51 1   
    50    31    32 1   
    51    31    34 1   
    52    32    33 1   
    53    32    52 1   
    54    32    53 1   
    55    33    54 1   
    56    33    55 1   
    57    34    35 1   
    58    34    36 1   
    59    34    56 1   
    60    35    57 1   
    61    35    58 1   
    62    35    59 1   
    63    36    60 1   
    64    36    61 1   
    65    36    62 1   
@<TRIPOS>SUBSTRUCTURE
     1 D1Q         1 TEMP              0 ****  ****    0 ROOT
