@<TRIPOS>MOLECULE
D1R
   81    84     1     0     0
SMALL
bcc


@<TRIPOS>ATOM
      1 C39         -1.1710    -0.0730     3.2900 c6         1 D1R       0.106000
      2 C40         -1.2480    -0.9960     4.4980 c6         1 D1R       0.135800
      3 N4          -1.4880    -2.3670     4.0950 n3         1 D1R      -0.716600
      4 C33         -1.6300    -3.2370     5.2420 c3         1 D1R       0.151100
      5 C49         -0.4460    -2.8260     3.1990 c6         1 D1R       0.135800
      6 C48         -0.3740    -1.9320     1.9740 c6         1 D1R       0.106000
      7 N3          -0.1680    -0.5500     2.3580 n          1 D1R      -0.488800
      8 C8           0.9980     0.0790     2.0500 c          1 D1R       0.797100
      9 O2           1.9280    -0.4910     1.4850 o          1 D1R      -0.673100
     10 N1           1.0980     1.3960     2.3920 ns         1 D1R      -0.558900
     11 C9           2.2760     2.1260     2.0070 c3         1 D1R       0.045700
     12 C10          2.1130     3.6080     2.3720 c3         1 D1R      -0.045100
     13 C11          0.9420     4.2420     1.6730 ca         1 D1R      -0.094300
     14 C12          0.9920     4.4990     0.3030 ca         1 D1R      -0.127500
     15 C13         -0.0960     5.0510    -0.3560 ca         1 D1R      -0.124000
     16 C14         -1.2570     5.3560     0.3460 ca         1 D1R      -0.124000
     17 C15         -1.3180     5.1080     1.7100 ca         1 D1R      -0.124000
     18 C16         -0.2250     4.5550     2.3670 ca         1 D1R      -0.127500
     19 C17          3.4930     1.5790     2.7560 c          1 D1R       0.668100
     20 O3           3.4320     1.2970     3.9400 o          1 D1R      -0.583100
     21 N2           4.6130     1.5130     2.0200 ns         1 D1R      -0.569900
     22 C18          5.9120     1.0780     2.5060 c3         1 D1R       0.135700
     23 C19          6.5090     2.0410     3.5320 c3         1 D1R      -0.093400
     24 C20          6.6540     3.4680     3.0030 c3         1 D1R      -0.026100
     25 C21          7.2050     4.3940     4.0510 ca         1 D1R      -0.081300
     26 C22          6.3710     4.9250     5.0330 ca         1 D1R      -0.124500
     27 C23          6.8760     5.7480     6.0300 ca         1 D1R      -0.126500
     28 C24          8.2310     6.0540     6.0610 ca         1 D1R      -0.129000
     29 C25          9.0730     5.5310     5.0890 ca         1 D1R      -0.126500
     30 C26          8.5620     4.7070     4.0930 ca         1 D1R      -0.124500
     31 C27          5.8940    -0.3560     3.0500 c3         1 D1R      -0.065400
     32 C28          5.2390    -1.3140     2.0670 c3         1 D1R      -0.190600
     33 S1           5.2560    -2.9860     2.7000 sy         1 D1R       1.075300
     34 O4           4.5070    -3.0160     3.9570 o          1 D1R      -0.596800
     35 O5           6.6350    -3.4760     2.7030 o          1 D1R      -0.596800
     36 CAB          4.3380    -3.8980     1.4860 ca         1 D1R      -0.259500
     37 CAA          5.0090    -4.4730     0.4150 ca         1 D1R      -0.028500
     38 CAC          4.2790    -5.1690    -0.5360 ca         1 D1R      -0.150000
     39 CAE          2.9010    -5.2880    -0.4090 ca         1 D1R      -0.075000
     40 CAF          2.2440    -4.7100     0.6690 ca         1 D1R      -0.150000
     41 CAD          2.9610    -4.0070     1.6250 ca         1 D1R      -0.028500
     42 H391        -2.1430    -0.0370     2.7890 h1         1 D1R       0.057950
     43 H392        -0.9500     0.9300     3.6440 h1         1 D1R       0.057950
     44 H401        -0.3140    -0.9010     5.0800 h1         1 D1R       0.044950
     45 H402        -2.0640    -0.6630     5.1430 h1         1 D1R       0.044950
     46 H331        -2.4660    -2.9080     5.8590 h1         1 D1R       0.034367
     47 H332        -0.7320    -3.2610     5.8780 h1         1 D1R       0.034367
     48 H333        -1.8360    -4.2560     4.9130 h1         1 D1R       0.034367
     49 H491        -0.6700    -3.8490     2.8840 h1         1 D1R       0.044950
     50 H492         0.5410    -2.8440     3.6960 h1         1 D1R       0.044950
     51 H481         0.4250    -2.2520     1.3120 h1         1 D1R       0.057950
     52 H482        -1.3150    -2.0050     1.4190 h1         1 D1R       0.057950
     53 HN1          0.2600     1.9380     2.5230 hn         1 D1R       0.320500
     54 H9           2.4450     2.0510     0.9260 h1         1 D1R       0.051700
     55 H101         3.0350     4.1260     2.0980 hc         1 D1R       0.068700
     56 H102         2.0010     3.7030     3.4550 hc         1 D1R       0.068700
     57 H12          1.8920     4.2650    -0.2540 ha         1 D1R       0.130500
     58 H13         -0.0380     5.2450    -1.4190 ha         1 D1R       0.134000
     59 H14         -2.1060     5.7880    -0.1670 ha         1 D1R       0.134000
     60 H15         -2.2150     5.3470     2.2660 ha         1 D1R       0.134000
     61 H16         -0.2800     4.3740     3.4350 ha         1 D1R       0.130500
     62 HN2          4.5410     1.7210     1.0380 hn         1 D1R       0.312500
     63 H18          6.5560     1.0880     1.6230 h1         1 D1R       0.042700
     64 H191         7.4940     1.6610     3.8200 hc         1 D1R       0.063200
     65 H192         5.8980     2.0430     4.4370 hc         1 D1R       0.063200
     66 H201         7.3060     3.4680     2.1250 hc         1 D1R       0.042200
     67 H202         5.6790     3.8340     2.6710 hc         1 D1R       0.042200
     68 H22          5.3120     4.6910     5.0160 ha         1 D1R       0.129000
     69 H23          6.2110     6.1530     6.7820 ha         1 D1R       0.129500
     70 H24          8.6270     6.6960     6.8380 ha         1 D1R       0.130000
     71 H25         10.1290     5.7670     5.1020 ha         1 D1R       0.129500
     72 H26          9.2250     4.3030     3.3380 ha         1 D1R       0.129000
     73 H271         6.9280    -0.6530     3.2330 hc         1 D1R       0.073700
     74 H272         5.3700    -0.3830     4.0050 hc         1 D1R       0.073700
     75 H281         4.1930    -1.0640     1.8830 h1         1 D1R       0.108700
     76 H282         5.7640    -1.3410     1.1100 h1         1 D1R       0.108700
     77 HAA          6.0830    -4.3870     0.3200 ha         1 D1R       0.155000
     78 HAC          4.7890    -5.6230    -1.3750 ha         1 D1R       0.134500
     79 HAE          2.3370    -5.8340    -1.1530 ha         1 D1R       0.132000
     80 HAF          1.1710    -4.8140     0.7670 ha         1 D1R       0.134500
     81 HAD          2.4540    -3.5570     2.4690 ha         1 D1R       0.155000
@<TRIPOS>BOND
     1     1     2 1   
     2     1     7 1   
     3     1    42 1   
     4     1    43 1   
     5     2     3 1   
     6     2    44 1   
     7     2    45 1   
     8     3     4 1   
     9     3     5 1   
    10     4    46 1   
    11     4    47 1   
    12     4    48 1   
    13     5     6 1   
    14     5    49 1   
    15     5    50 1   
    16     6     7 1   
    17     6    51 1   
    18     6    52 1   
    19     7     8 1   
    20     8     9 2   
    21     8    10 1   
    22    10    11 1   
    23    10    53 1   
    24    11    12 1   
    25    11    19 1   
    26    11    54 1   
    27    12    13 1   
    28    12    55 1   
    29    12    56 1   
    30    13    14 ar  
    31    13    18 ar  
    32    14    15 ar  
    33    14    57 1   
    34    15    16 ar  
    35    15    58 1   
    36    16    17 ar  
    37    16    59 1   
    38    17    18 ar  
    39    17    60 1   
    40    18    61 1   
    41    19    20 2   
    42    19    21 1   
    43    21    22 1   
    44    21    62 1   
    45    22    23 1   
    46    22    31 1   
    47    22    63 1   
    48    23    24 1   
    49    23    64 1   
    50    23    65 1   
    51    24    25 1   
    52    24    66 1   
    53    24    67 1   
    54    25    26 ar  
    55    25    30 ar  
    56    26    27 ar  
    57    26    68 1   
    58    27    28 ar  
    59    27    69 1   
    60    28    29 ar  
    61    28    70 1   
    62    29    30 ar  
    63    29    71 1   
    64    30    72 1   
    65    31    32 1   
    66    31    73 1   
    67    31    74 1   
    68    32    33 1   
    69    32    75 1   
    70    32    76 1   
    71    33    34 2   
    72    33    35 2   
    73    33    36 1   
    74    36    37 ar  
    75    36    41 ar  
    76    37    38 ar  
    77    37    77 1   
    78    38    39 ar  
    79    38    78 1   
    80    39    40 ar  
    81    39    79 1   
    82    40    41 ar  
    83    40    80 1   
    84    41    81 1   
@<TRIPOS>SUBSTRUCTURE
     1 D1R         1 TEMP              0 ****  ****    0 ROOT
