@<TRIPOS>MOLECULE
D1R
   81    84     1     0     0
SMALL
No Charge or Current Charge


@<TRIPOS>ATOM
      1 C39         -1.1290     0.1510     3.7920 c6         1 D1R       0.106000
      2 C40         -2.1990    -0.5630     4.6660 c6         1 D1R       0.135800
      3 N4          -2.7710    -1.7630     4.0060 n3         1 D1R      -0.716600
      4 C33         -3.8620    -2.3760     4.7950 c3         1 D1R       0.151100
      5 C49         -1.6770    -2.7210     3.7080 c6         1 D1R       0.135800
      6 C48         -0.5920    -2.1120     2.7790 c6         1 D1R       0.106000
      7 N3          -0.1100    -0.7470     3.1540 n          1 D1R      -0.421800
      8 C8           1.0490    -0.2360     2.5430 c          1 D1R       0.663100
      9 O2           1.7760    -0.9280     1.8460 o          1 D1R      -0.673100
     10 N1           1.3220     1.0880     2.7730 ns         1 D1R      -0.491900
     11 C9           2.4480     1.8240     2.1640 c3         1 D1R       0.045700
     12 C10          2.1840     3.3490     2.2050 c3         1 D1R      -0.045100
     13 C11          0.8140     3.7250     1.6480 ca         1 D1R      -0.094300
     14 C12          0.5460     3.5850     0.2720 ca         1 D1R      -0.109500
     15 C13         -0.7210     3.9130    -0.2420 ca         1 D1R      -0.106000
     16 C14         -1.7280     4.3830     0.6180 ca         1 D1R      -0.106000
     17 C15         -1.4670     4.5260     1.9910 ca         1 D1R      -0.106000
     18 C16         -0.2000     4.1990     2.5040 ca         1 D1R      -0.109500
     19 C17          3.7910     1.4700     2.8630 c          1 D1R       0.601100
     20 O3           3.8650     1.1260     4.0370 o          1 D1R      -0.583100
     21 N2           4.9010     1.5780     2.0450 ns         1 D1R      -0.502900
     22 C18          6.2860     1.2530     2.4120 c3         1 D1R       0.135700
     23 C19          6.8580     2.2190     3.4810 c3         1 D1R      -0.093400
     24 C20          6.7660     3.7140     3.0980 c3         1 D1R      -0.026100
     25 C21          7.3910     4.6110     4.1580 ca         1 D1R      -0.081300
     26 C22          6.6330     5.0240     5.2710 ca         1 D1R      -0.106500
     27 C23          7.2090     5.8480     6.2540 ca         1 D1R      -0.108500
     28 C24          8.5450     6.2640     6.1290 ca         1 D1R      -0.111000
     29 C25          9.3060     5.8530     5.0220 ca         1 D1R      -0.108500
     30 C26          8.7310     5.0290     4.0390 ca         1 D1R      -0.106500
     31 C27          6.4540    -0.2380     2.8110 c3         1 D1R      -0.065400
     32 C28          5.8270    -1.2320     1.7940 c3         1 D1R      -0.301400
     33 S1           6.0200    -2.9630     2.2690 sy         1 D1R       1.044500
     34 O4           5.3070    -3.1340     3.5420 o          1 D1R      -0.526000
     35 O5           7.4480    -3.2860     2.1480 o          1 D1R      -0.526000
     36 CAB          5.1080    -3.8380     0.9820 ca         1 D1R      -0.259500
     37 CAA          5.7880    -4.4140    -0.1120 ca         1 D1R      -0.010500
     38 CAC          5.0630    -5.0830    -1.1140 ca         1 D1R      -0.132000
     39 CAE          3.6630    -5.1770    -1.0330 ca         1 D1R      -0.057000
     40 CAF          2.9850    -4.5980     0.0530 ca         1 D1R      -0.132000
     41 CAD          3.7020    -3.9280     1.0590 ca         1 D1R      -0.010500
     42 H391        -1.6460     0.7010     2.9930 h1         1 D1R       0.057950
     43 H392        -0.6290     0.8950     4.4280 h1         1 D1R       0.057950
     44 H401        -1.7320    -0.8480     5.6210 h1         1 D1R       0.044950
     45 H402        -2.9920     0.1610     4.9040 h1         1 D1R       0.044950
     46 H331        -4.6700    -1.6530     4.9670 h1         1 D1R       0.034367
     47 H332        -3.4950    -2.7210     5.7720 h1         1 D1R       0.034367
     48 H333        -4.2870    -3.2380     4.2630 h1         1 D1R       0.034367
     49 H491        -2.0780    -3.6260     3.2280 h1         1 D1R       0.044950
     50 H492        -1.1950    -3.0440     4.6430 h1         1 D1R       0.044950
     51 H481         0.2590    -2.8070     2.7440 h1         1 D1R       0.057950
     52 H482        -1.0020    -2.0580     1.7600 h1         1 D1R       0.057950
     53 HN1          0.6750     1.5950     3.3590 hn         1 D1R       0.320500
     54 H9           2.5260     1.5140     1.1140 h1         1 D1R       0.051700
     55 H101         2.9700     3.8640     1.6390 hc         1 D1R       0.068700
     56 H102         2.2810     3.6980     3.2400 hc         1 D1R       0.068700
     57 H12          1.3190     3.2180    -0.4000 ha         1 D1R       0.112500
     58 H13         -0.9220     3.8010    -1.3050 ha         1 D1R       0.116000
     59 H14         -2.7090     4.6360     0.2200 ha         1 D1R       0.116000
     60 H15         -2.2460     4.8910     2.6570 ha         1 D1R       0.116000
     61 H16         -0.0100     4.3130     3.5700 ha         1 D1R       0.112500
     62 HN2          4.7260     1.8680     1.0910 hn         1 D1R       0.312500
     63 H18          6.8800     1.4010     1.5010 h1         1 D1R       0.042700
     64 H191         7.9110     1.9660     3.6540 hc         1 D1R       0.063200
     65 H192         6.3410     2.0620     4.4350 hc         1 D1R       0.063200
     66 H201         7.2610     3.8690     2.1310 hc         1 D1R       0.042200
     67 H202         5.7160     3.9940     2.9520 hc         1 D1R       0.042200
     68 H22          5.5990     4.7040     5.3760 ha         1 D1R       0.111000
     69 H23          6.6190     6.1640     7.1120 ha         1 D1R       0.111500
     70 H24          8.9900     6.9020     6.8900 ha         1 D1R       0.112000
     71 H25         10.3410     6.1730     4.9250 ha         1 D1R       0.111500
     72 H26          9.3280     4.7140     3.1860 ha         1 D1R       0.111000
     73 H271         7.5250    -0.4530     2.9160 hc         1 D1R       0.073700
     74 H272         6.0090    -0.4010     3.8000 hc         1 D1R       0.073700
     75 H281         4.7480    -1.0630     1.7060 h1         1 D1R       0.108700
     76 H282         6.2870    -1.1200     0.8070 h1         1 D1R       0.108700
     77 HAA          6.8720    -4.3470    -0.1920 ha         1 D1R       0.137000
     78 HAC          5.5880    -5.5290    -1.9560 ha         1 D1R       0.116500
     79 HAE          3.1060    -5.6950    -1.8100 ha         1 D1R       0.114000
     80 HAF          1.9010    -4.6670     0.1150 ha         1 D1R       0.116500
     81 HAD          3.1630    -3.4790     1.8920 ha         1 D1R       0.137000
@<TRIPOS>BOND
     1     1     2 1   
     2     1     7 1   
     3     1    42 1   
     4     1    43 1   
     5     2     3 1   
     6     2    44 1   
     7     2    45 1   
     8     3     4 1   
     9     3     5 1   
    10     4    46 1   
    11     4    47 1   
    12     4    48 1   
    13     5     6 1   
    14     5    49 1   
    15     5    50 1   
    16     6     7 1   
    17     6    51 1   
    18     6    52 1   
    19     7     8 1   
    20     8     9 2   
    21     8    10 1   
    22    10    11 1   
    23    10    53 1   
    24    11    12 1   
    25    11    19 1   
    26    11    54 1   
    27    12    13 1   
    28    12    55 1   
    29    12    56 1   
    30    13    14 ar  
    31    13    18 ar  
    32    14    15 ar  
    33    14    57 1   
    34    15    16 ar  
    35    15    58 1   
    36    16    17 ar  
    37    16    59 1   
    38    17    18 ar  
    39    17    60 1   
    40    18    61 1   
    41    19    20 2   
    42    19    21 1   
    43    21    22 1   
    44    21    62 1   
    45    22    23 1   
    46    22    31 1   
    47    22    63 1   
    48    23    24 1   
    49    23    64 1   
    50    23    65 1   
    51    24    25 1   
    52    24    66 1   
    53    24    67 1   
    54    25    26 ar  
    55    25    30 ar  
    56    26    27 ar  
    57    26    68 1   
    58    27    28 ar  
    59    27    69 1   
    60    28    29 ar  
    61    28    70 1   
    62    29    30 ar  
    63    29    71 1   
    64    30    72 1   
    65    31    32 1   
    66    31    73 1   
    67    31    74 1   
    68    32    33 1   
    69    32    75 1   
    70    32    76 1   
    71    33    34 2   
    72    33    35 2   
    73    33    36 1   
    74    36    37 ar  
    75    36    41 ar  
    76    37    38 ar  
    77    37    77 1   
    78    38    39 ar  
    79    38    78 1   
    80    39    40 ar  
    81    39    79 1   
    82    40    41 ar  
    83    40    80 1   
    84    41    81 1   
@<TRIPOS>SUBSTRUCTURE
     1 D1R         1 TEMP              0 ****  ****    0 ROOT
