@<TRIPOS>MOLECULE
D1S
   95    96     1     0     0
SMALL
No Charge or Current Charge


@<TRIPOS>ATOM
      1 CAA          6.2400    -1.5310    -3.6890 c3         1 D1S       0.139900
      2 CAC          1.7620    -4.8170     0.7410 c3         1 D1S      -0.052900
      3 CAD          5.2770     1.9220    -1.8570 c3         1 D1S      -0.040900
      4 CAE         -2.7460     2.7200    -0.5770 c3         1 D1S      -0.085100
      5 CAF          4.1870     4.2850     0.6370 c3         1 D1S      -0.092100
      6 CAG         -9.6190     2.7880    -0.9270 c3         1 D1S       0.148600
      7 CAH        -11.4170     1.2470    -0.2860 c3         1 D1S       0.148600
      8 NAI          7.7160     0.2550     1.9680 nt         1 D1S      -0.602000
      9 OAJ          5.5040     0.4410     2.3450 o          1 D1S      -0.546000
     10 OAK          0.1630    -1.8890    -0.9530 o          1 D1S      -0.572100
     11 OAL         -5.4460    -3.0720     0.2860 o          1 D1S      -0.509100
     12 OAM         -0.7700    -0.7790     1.6160 o          1 D1S      -0.508100
     13 OAN          1.3730     4.8590     0.7810 oh         1 D1S      -0.725000
     14 CAO          4.1330    -3.4120    -0.7360 ce         1 D1S      -0.190000
     15 CAP          2.7260    -2.9820    -0.7520 ce         1 D1S      -0.111000
     16 CAQ          5.1670    -2.6140    -1.1030 c2         1 D1S      -0.211200
     17 CAR          3.6870     1.8980     0.1290 c2         1 D1S      -0.153200
     18 CAS         -3.1340    -3.2470     0.4660 cc         1 D1S      -0.335200
     19 CAT         -7.6390     0.7790     0.3150 c3         1 D1S      -0.105400
     20 CAU         -6.7740    -0.4930     0.3590 c3         1 D1S       0.234800
     21 CAV         -9.0830     0.4870    -0.1460 c3         1 D1S       0.168800
     22 CAW         -2.8160     1.0900     1.4260 c3         1 D1S      -0.002200
     23 CAX         -0.6710     2.4840     0.9420 c3         1 D1S      -0.076400
     24 NAY         -5.4080    -0.1630     0.7990 nu         1 D1S      -0.812200
     25 NAZ         -0.7640    -3.3800     0.4650 ns         1 D1S      -0.431100
     26 OBA          6.2500    -0.8940    -2.3990 os         1 D1S      -0.434000
     27 OBB          0.9260     1.4190    -0.5150 os         1 D1S      -0.447000
     28 OBC          6.3510    -0.1280     0.2780 os         1 D1S      -0.449100
     29 CBD          6.4330     0.2330     1.5850 c          1 D1S       0.641100
     30 CBE          1.6470    -3.5700    -0.1380 cf         1 D1S      -0.176400
     31 CBF          4.5940     1.2750    -0.6560 c2         1 D1S      -0.165400
     32 CBG          0.3100    -2.8790    -0.2480 c          1 D1S       0.619300
     33 CBH         -1.9220    -2.6540     0.7170 cd         1 D1S       0.048400
     34 CBI         -3.0670    -0.3950     1.1390 cc         1 D1S      -0.315400
     35 CBJ         -4.2860    -0.9900     0.8220 cd         1 D1S       0.147800
     36 CBK         -4.3920    -2.4890     0.5150 c          1 D1S       0.574500
     37 CBL         -1.8290    -1.2280     1.1900 c          1 D1S       0.584500
     38 CBM         -1.9260     1.7780     0.3350 c3         1 D1S      -0.063700
     39 CBN          3.1410     3.3230     0.0110 c3         1 D1S      -0.053500
     40 CBO          5.0970    -1.1600    -1.5650 c3         1 D1S       0.196500
     41 CBP          1.7170     3.4640     0.6670 c3         1 D1S       0.158300
     42 CBQ          0.5170     2.7200    -0.0380 c3         1 D1S       0.175300
     43 CBR          5.0500    -0.1650    -0.3520 c3         1 D1S       0.244500
     44 NBS        -10.0090     1.6460    -0.0650 n3         1 D1S      -0.711600
     45 H1AA         7.1360    -1.2510    -4.2580 h1         1 D1S       0.030700
     46 H2AA         6.2290    -2.6240    -3.5920 h1         1 D1S       0.030700
     47 H3AA         5.3590    -1.2240    -4.2680 h1         1 D1S       0.030700
     48 H1AB         0.2650     1.5250    -2.5000 h1         1 D1S       0.026033
     49 H2AB         1.9500     2.0370    -2.2470 h1         1 D1S       0.026033
     50 H3AB         1.5290     0.3150    -2.1850 h1         1 D1S       0.026033
     51 H1AC         2.7850    -4.9810     1.0980 hc         1 D1S       0.045033
     52 H2AC         1.1430    -4.7470     1.6420 hc         1 D1S       0.045033
     53 H3AC         1.4570    -5.7150     0.1910 hc         1 D1S       0.045033
     54 H1AD         5.0370     2.9850    -1.9600 hc         1 D1S       0.040367
     55 H2AD         6.3680     1.8500    -1.7760 hc         1 D1S       0.040367
     56 H3AD         4.9750     1.4390    -2.7930 hc         1 D1S       0.040367
     57 H1AE        -3.1380     3.5720    -0.0080 hc         1 D1S       0.027367
     58 H2AE        -2.1300     3.1070    -1.3960 hc         1 D1S       0.027367
     59 H3AE        -3.5950     2.1830    -1.0190 hc         1 D1S       0.027367
     60 H1AF         5.1840     4.1000     0.2200 hc         1 D1S       0.038367
     61 H2AF         3.9430     5.3340     0.4340 hc         1 D1S       0.038367
     62 H3AF         4.2480     4.1420     1.7230 hc         1 D1S       0.038367
     63 H1AG       -10.3430     3.6090    -0.8310 h1         1 D1S       0.031533
     64 H2AG        -8.6360     3.1850    -0.6430 h1         1 D1S       0.031533
     65 H3AG        -9.5810     2.4880    -1.9830 h1         1 D1S       0.031533
     66 H1AH       -11.5620     0.8670    -1.3060 h1         1 D1S       0.031533
     67 H2AH       -11.7140     0.4600     0.4200 h1         1 D1S       0.031533
     68 H3AH       -12.0910     2.1020    -0.1390 h1         1 D1S       0.031533
     69 H1AI         8.4350     0.0500     1.2910 hn         1 D1S       0.326000
     70 H2AI         7.9480     0.4820     2.9220 hn         1 D1S       0.326000
     71 HOAN         2.0520     5.2760     1.3580 ho         1 D1S       0.505000
     72 HAO          4.3410    -4.4290    -0.4000 ha         1 D1S       0.178000
     73 HAP          2.5350    -2.0650    -1.3080 ha         1 D1S       0.200000
     74 HAQ          6.1860    -2.9990    -1.0490 ha         1 D1S       0.189000
     75 HAR          3.2710     1.3540     0.9790 ha         1 D1S       0.183000
     76 HAS         -3.2230    -4.2810     0.1550 ha         1 D1S       0.207000
     77 H1AT        -7.6670     1.2330     1.3120 hc         1 D1S       0.054200
     78 H2AT        -7.1710     1.4990    -0.3660 hc         1 D1S       0.054200
     79 H1AU        -7.2290    -1.2150     1.0520 h1         1 D1S       0.055700
     80 H2AU        -6.7510    -0.9450    -0.6420 h1         1 D1S       0.055700
     81 H1AV        -9.0540     0.1020    -1.1750 h1         1 D1S       0.032700
     82 H2AV        -9.4720    -0.3240     0.4850 h1         1 D1S       0.032700
     83 H1AW        -3.7470     1.6560     1.5420 hc         1 D1S       0.044700
     84 H2AW        -2.3390     1.1800     2.4100 hc         1 D1S       0.044700
     85 H1AX        -0.9780     3.4420     1.3780 hc         1 D1S       0.052200
     86 H2AX        -0.2850     1.8840     1.7760 hc         1 D1S       0.052200
     87 HNAY        -5.2280     0.8140     1.0250 hn         1 D1S       0.488000
     88 HNAZ        -0.6760    -4.3370     0.7800 hn         1 D1S       0.335500
     89 HBM         -1.5560     0.9830    -0.3240 hc         1 D1S       0.080700
     90 HBN          3.0430     3.5990    -1.0450 hc         1 D1S       0.061700
     91 HBO          4.1840    -1.0030    -2.1530 h1         1 D1S       0.056700
     92 HBP          1.8020     3.0440     1.6800 h1         1 D1S       0.039700
     93 HBQ          0.1630     3.3400    -0.8730 h1         1 D1S       0.048700
     94 HBR          4.3200    -0.6060     0.3410 h1         1 D1S       0.078700
     95 CAB          1.1810     1.3240    -1.9290 c3         1 D1S       0.153900
@<TRIPOS>BOND
     1     1    26 1   
     2     1    45 1   
     3     1    46 1   
     4     1    47 1   
     5     2    30 1   
     6     2    51 1   
     7     2    52 1   
     8     2    53 1   
     9     3    31 1   
    10     3    54 1   
    11     3    55 1   
    12     3    56 1   
    13     4    38 1   
    14     4    57 1   
    15     4    58 1   
    16     4    59 1   
    17     5    39 1   
    18     5    60 1   
    19     5    61 1   
    20     5    62 1   
    21     6    44 1   
    22     6    63 1   
    23     6    64 1   
    24     6    65 1   
    25     7    44 1   
    26     7    66 1   
    27     7    67 1   
    28     7    68 1   
    29     8    29 1   
    30     8    69 1   
    31     8    70 1   
    32     9    29 2   
    33    10    32 2   
    34    11    36 2   
    35    12    37 2   
    36    13    41 1   
    37    13    71 1   
    38    14    15 1   
    39    14    16 2   
    40    14    72 1   
    41    15    30 2   
    42    15    73 1   
    43    16    40 1   
    44    16    74 1   
    45    17    31 2   
    46    17    39 1   
    47    17    75 1   
    48    18    33 2   
    49    18    36 1   
    50    18    76 1   
    51    19    20 1   
    52    19    21 1   
    53    19    77 1   
    54    19    78 1   
    55    20    24 1   
    56    20    79 1   
    57    20    80 1   
    58    21    44 1   
    59    21    81 1   
    60    21    82 1   
    61    22    34 1   
    62    22    38 1   
    63    22    83 1   
    64    22    84 1   
    65    23    38 1   
    66    23    42 1   
    67    23    85 1   
    68    23    86 1   
    69    24    35 1   
    70    24    87 1   
    71    25    32 1   
    72    25    33 1   
    73    25    88 1   
    74    26    40 1   
    75    27    42 1   
    76    27    95 1   
    77    28    29 1   
    78    28    43 1   
    79    30    32 1   
    80    31    43 1   
    81    33    37 1   
    82    34    35 2   
    83    34    37 1   
    84    35    36 1   
    85    38    89 1   
    86    39    41 1   
    87    39    90 1   
    88    40    43 1   
    89    40    91 1   
    90    41    42 1   
    91    41    92 1   
    92    42    93 1   
    93    43    94 1   
    94    48    95 1   
    95    49    95 1   
    96    50    95 1   
@<TRIPOS>SUBSTRUCTURE
     1 D1S         1 TEMP              0 ****  ****    0 ROOT
