@<TRIPOS>MOLECULE
D1S
   95    96     1     0     0
SMALL
abcg2


@<TRIPOS>ATOM
      1 CAA          4.5680    -1.2530    -3.7630 c3         1 D1S       0.139900
      2 CAC          1.6130    -4.9590     0.6450 c3         1 D1S      -0.052900
      3 CAD          4.7720     2.2790    -1.9190 c3         1 D1S      -0.040900
      4 CAE         -2.6110     2.1030    -0.1880 c3         1 D1S      -0.085100
      5 CAF          3.9270     4.4160     0.9710 c3         1 D1S      -0.092100
      6 CAG         -8.3940     2.4380    -2.2300 c3         1 D1S       0.148600
      7 CAH        -10.4920     1.6470    -1.4370 c3         1 D1S       0.148600
      8 NAI          8.3860     0.6030     0.4270 nt         1 D1S      -0.602000
      9 OAJ          6.5380     0.7190     1.7360 o          1 D1S      -0.546000
     10 OAK         -0.1990    -1.9690    -0.5900 o          1 D1S      -0.572100
     11 OAL         -5.5900    -3.0240     1.2030 o          1 D1S      -0.509100
     12 OAM         -0.8420    -1.4140     2.2290 o          1 D1S      -0.508100
     13 OAN          1.1090     4.6480     1.3450 oh         1 D1S      -0.725000
     14 CAO          3.8110    -3.1220    -0.5370 ce         1 D1S      -0.190000
     15 CAP          2.3920    -2.8420    -0.4970 ce         1 D1S      -0.111000
     16 CAQ          4.7440    -2.2550    -0.9580 c2         1 D1S      -0.211200
     17 CAR          3.6310     2.0700     0.3040 c2         1 D1S      -0.153200
     18 CAS         -3.3250    -3.4170     0.7900 cc         1 D1S      -0.335200
     19 CAT         -7.1190     0.8420     0.0010 c3         1 D1S      -0.105400
     20 CAU         -6.5810    -0.4740     0.5430 c3         1 D1S       0.234800
     21 CAV         -8.4910     0.6390    -0.6280 c3         1 D1S       0.168800
     22 CAW         -2.5790     0.7470     1.9380 c3         1 D1S      -0.002200
     23 CAX         -0.6170     2.2600     1.3910 c3         1 D1S      -0.076400
     24 NAY         -5.2890    -0.2540     1.1710 nu         1 D1S      -0.812200
     25 NAZ         -0.9260    -3.6520     0.6960 ns         1 D1S      -0.431100
     26 OBA          5.1930    -0.6390    -2.6610 os         1 D1S      -0.434000
     27 OBB          1.0120     1.3710    -0.1140 os         1 D1S      -0.447000
     28 OBC          6.4090     0.1700    -0.4520 os         1 D1S      -0.449100
     29 CBD          7.0670     0.5150     0.6640 c          1 D1S       0.641100
     30 CBE          1.4180    -3.6170     0.0130 cf         1 D1S      -0.176400
     31 CBF          4.4270     1.5690    -0.6420 c2         1 D1S      -0.165400
     32 CBG          0.0590    -3.0080    -0.0090 c          1 D1S       0.619300
     33 CBH         -2.0880    -2.9530     0.9730 cd         1 D1S       0.048400
     34 CBI         -2.9770    -0.6620     1.6050 cc         1 D1S      -0.315400
     35 CBJ         -4.2320    -1.0800     1.2580 cd         1 D1S       0.147800
     36 CBK         -4.4740    -2.5610     1.0980 c          1 D1S       0.574500
     37 CBL         -1.8970    -1.6240     1.6580 c          1 D1S       0.584500
     38 CBM         -1.7220     1.3740     0.8140 c3         1 D1S      -0.063700
     39 CBN          2.9630     3.4150     0.3220 c3         1 D1S      -0.053500
     40 CBO          4.5140    -0.8520    -1.4500 c3         1 D1S       0.196500
     41 CBP          1.6370     3.3600     1.1070 c3         1 D1S       0.158300
     42 CBQ          0.5120     2.5800     0.4080 c3         1 D1S       0.175300
     43 CBR          4.9800     0.1840    -0.4170 c3         1 D1S       0.244500
     44 NBS         -9.1010     1.8660    -1.1030 n3         1 D1S      -0.711600
     45 H1AA         5.1540    -1.0160    -4.6500 h1         1 D1S       0.030700
     46 H2AA         4.5190    -2.3430    -3.6630 h1         1 D1S       0.030700
     47 H3AA         3.5480    -0.8800    -3.9120 h1         1 D1S       0.030700
     48 H1AB         0.0150     1.4440    -1.9330 h1         1 D1S       0.026033
     49 H2AB         1.7030     1.9820    -1.9860 h1         1 D1S       0.026033
     50 H3AB         1.3210     0.2660    -1.7760 h1         1 D1S       0.026033
     51 H1AC         2.6400    -5.3040     0.5590 hc         1 D1S       0.045033
     52 H2AC         1.3660    -4.9410     1.7090 hc         1 D1S       0.045033
     53 H3AC         0.9830    -5.7190     0.1770 hc         1 D1S       0.045033
     54 H1AD         4.5510     3.3430    -1.8630 hc         1 D1S       0.040367
     55 H2AD         5.8320     2.1820    -2.1530 hc         1 D1S       0.040367
     56 H3AD         4.2240     1.8740    -2.7720 hc         1 D1S       0.040367
     57 H1AE        -3.1230     2.9480     0.2810 hc         1 D1S       0.027367
     58 H2AE        -2.0440     2.4900    -1.0360 hc         1 D1S       0.027367
     59 H3AE        -3.3770     1.4380    -0.5930 hc         1 D1S       0.027367
     60 H1AF         4.8750     4.4280     0.4350 hc         1 D1S       0.038367
     61 H2AF         3.5350     5.4340     0.9620 hc         1 D1S       0.038367
     62 H3AF         4.1410     4.1390     2.0060 hc         1 D1S       0.038367
     63 H1AG        -8.8920     3.3540    -2.5500 h1         1 D1S       0.031533
     64 H2AG        -7.3720     2.7020    -1.9590 h1         1 D1S       0.031533
     65 H3AG        -8.3460     1.7600    -3.0980 h1         1 D1S       0.031533
     66 H1AH       -10.6340     0.9200    -2.2530 h1         1 D1S       0.031533
     67 H2AH       -11.0360     1.2770    -0.5670 h1         1 D1S       0.031533
     68 H3AH       -10.9560     2.5850    -1.7460 h1         1 D1S       0.031533
     69 H1AI         8.7850     0.3460    -0.4590 hn         1 D1S       0.326000
     70 H2AI         9.0140     0.7580     1.1960 hn         1 D1S       0.326000
     71 HOAN         1.6010     5.0580     2.0620 ho         1 D1S       0.505000
     72 HAO          4.1500    -4.0900    -0.1890 ha         1 D1S       0.178000
     73 HAP          2.0690    -1.8910    -0.8980 ha         1 D1S       0.200000
     74 HAQ          5.7810    -2.5750    -0.9370 ha         1 D1S       0.189000
     75 HAR          3.4910     1.4750     1.2030 ha         1 D1S       0.183000
     76 HAS         -3.5310    -4.4090     0.4090 ha         1 D1S       0.207000
     77 H1AT        -7.2020     1.5760     0.8080 hc         1 D1S       0.054200
     78 H2AT        -6.4100     1.2430    -0.7290 hc         1 D1S       0.054200
     79 H1AU        -7.2930    -0.8960     1.2560 h1         1 D1S       0.055700
     80 H2AU        -6.4850    -1.1860    -0.2770 h1         1 D1S       0.055700
     81 H1AV        -8.4140    -0.1130    -1.4350 h1         1 D1S       0.032700
     82 H2AV        -9.1530     0.2080     0.1280 h1         1 D1S       0.032700
     83 H1AW        -3.4410     1.3850     2.1560 hc         1 D1S       0.044700
     84 H2AW        -2.0060     0.7260     2.8680 hc         1 D1S       0.044700
     85 H1AX        -1.0340     3.1920     1.7820 hc         1 D1S       0.052200
     86 H2AX        -0.1730     1.7350     2.2440 hc         1 D1S       0.052200
     87 HNAY        -5.0980     0.7080     1.4040 hn         1 D1S       0.488000
     88 HNAZ        -0.8580    -4.6290     0.9370 hn         1 D1S       0.335500
     89 HBM         -1.2250     0.5540     0.2920 hc         1 D1S       0.080700
     90 HBN          2.7560     3.7560    -0.6990 hc         1 D1S       0.061700
     91 HBO          3.4400    -0.6650    -1.5860 h1         1 D1S       0.056700
     92 HBP          1.8550     2.8600     2.0660 h1         1 D1S       0.039700
     93 HBQ          0.1280     3.2130    -0.4060 h1         1 D1S       0.048700
     94 HBR          4.6310    -0.1670     0.5590 h1         1 D1S       0.078700
     95 CAB          1.0120     1.2760    -1.5110 c3         1 D1S       0.153900
@<TRIPOS>BOND
     1     1    26 1   
     2     1    45 1   
     3     1    46 1   
     4     1    47 1   
     5     2    30 1   
     6     2    51 1   
     7     2    52 1   
     8     2    53 1   
     9     3    31 1   
    10     3    54 1   
    11     3    55 1   
    12     3    56 1   
    13     4    38 1   
    14     4    57 1   
    15     4    58 1   
    16     4    59 1   
    17     5    39 1   
    18     5    60 1   
    19     5    61 1   
    20     5    62 1   
    21     6    44 1   
    22     6    63 1   
    23     6    64 1   
    24     6    65 1   
    25     7    44 1   
    26     7    66 1   
    27     7    67 1   
    28     7    68 1   
    29     8    29 1   
    30     8    69 1   
    31     8    70 1   
    32     9    29 2   
    33    10    32 2   
    34    11    36 2   
    35    12    37 2   
    36    13    41 1   
    37    13    71 1   
    38    14    15 1   
    39    14    16 2   
    40    14    72 1   
    41    15    30 2   
    42    15    73 1   
    43    16    40 1   
    44    16    74 1   
    45    17    31 2   
    46    17    39 1   
    47    17    75 1   
    48    18    33 2   
    49    18    36 1   
    50    18    76 1   
    51    19    20 1   
    52    19    21 1   
    53    19    77 1   
    54    19    78 1   
    55    20    24 1   
    56    20    79 1   
    57    20    80 1   
    58    21    44 1   
    59    21    81 1   
    60    21    82 1   
    61    22    34 1   
    62    22    38 1   
    63    22    83 1   
    64    22    84 1   
    65    23    38 1   
    66    23    42 1   
    67    23    85 1   
    68    23    86 1   
    69    24    35 1   
    70    24    87 1   
    71    25    32 1   
    72    25    33 1   
    73    25    88 1   
    74    26    40 1   
    75    27    42 1   
    76    27    95 1   
    77    28    29 1   
    78    28    43 1   
    79    30    32 1   
    80    31    43 1   
    81    33    37 1   
    82    34    35 2   
    83    34    37 1   
    84    35    36 1   
    85    38    89 1   
    86    39    41 1   
    87    39    90 1   
    88    40    43 1   
    89    40    91 1   
    90    41    42 1   
    91    41    92 1   
    92    42    93 1   
    93    43    94 1   
    94    48    95 1   
    95    49    95 1   
    96    50    95 1   
@<TRIPOS>SUBSTRUCTURE
     1 D1S         1 TEMP              0 ****  ****    0 ROOT
