@<TRIPOS>MOLECULE
D1T
   33    32     1     0     0
SMALL
No Charge or Current Charge


@<TRIPOS>ATOM
      1 C10          7.1090    -0.4660     0.0310 c3         1 D1T      -0.088100
      2 C9           5.8390     0.4080     0.0270 c3         1 D1T      -0.074400
      3 C8           4.5360    -0.4200     0.0210 c3         1 D1T      -0.075400
      4 C7           3.2630     0.4550     0.0170 c3         1 D1T      -0.074400
      5 C6           1.9600    -0.3730     0.0120 c3         1 D1T      -0.074400
      6 C5           0.6870     0.5030     0.0080 c3         1 D1T      -0.074400
      7 C4          -0.6160    -0.3250     0.0020 c3         1 D1T      -0.074400
      8 C3          -1.8880     0.5510    -0.0020 c3         1 D1T      -0.074400
      9 C2          -3.1920    -0.2770    -0.0070 c3         1 D1T      -0.069400
     10 C1          -4.4600     0.5980    -0.0120 c3         1 D1T       0.088600
     11 S1          -6.0260    -0.3910    -0.0180 sh         1 D1T      -0.463800
     12 H101         8.0060     0.1650     0.0350 hc         1 D1T       0.031367
     13 H102         7.1360    -1.1070     0.9200 hc         1 D1T       0.031367
     14 H103         7.1430    -1.1050    -0.8590 hc         1 D1T       0.031367
     15 H91          5.8530     1.0600     0.9090 hc         1 D1T       0.036700
     16 H92          5.8590     1.0610    -0.8550 hc         1 D1T       0.036700
     17 H81          4.5270    -1.0720    -0.8610 hc         1 D1T       0.037700
     18 H82          4.5200    -1.0730     0.9030 hc         1 D1T       0.037700
     19 H71          3.2720     1.1080     0.9000 hc         1 D1T       0.036700
     20 H72          3.2790     1.1090    -0.8640 hc         1 D1T       0.036700
     21 H61          1.9510    -1.0250    -0.8700 hc         1 D1T       0.037700
     22 H62          1.9440    -1.0260     0.8930 hc         1 D1T       0.037700
     23 H51          0.6960     1.1550     0.8900 hc         1 D1T       0.037700
     24 H52          0.7030     1.1560    -0.8740 hc         1 D1T       0.037700
     25 H41         -0.6250    -0.9770    -0.8800 hc         1 D1T       0.039700
     26 H42         -0.6310    -0.9780     0.8840 hc         1 D1T       0.039700
     27 H31         -1.8800     1.2030     0.8800 hc         1 D1T       0.038700
     28 H32         -1.8730     1.2040    -0.8840 hc         1 D1T       0.038700
     29 H21         -3.2060    -0.9290    -0.8900 hc         1 D1T       0.054700
     30 H22         -3.2120    -0.9290     0.8740 hc         1 D1T       0.054700
     31 H11         -4.4630     1.2430     0.8770 h1         1 D1T       0.056700
     32 H12         -4.4560     1.2430    -0.9000 h1         1 D1T       0.056700
     33 HS1         -6.8720     0.6700    -0.0210 hs         1 D1T       0.211800
@<TRIPOS>BOND
     1     1     2 1   
     2     1    12 1   
     3     1    13 1   
     4     1    14 1   
     5     2     3 1   
     6     2    15 1   
     7     2    16 1   
     8     3     4 1   
     9     3    17 1   
    10     3    18 1   
    11     4     5 1   
    12     4    19 1   
    13     4    20 1   
    14     5     6 1   
    15     5    21 1   
    16     5    22 1   
    17     6     7 1   
    18     6    23 1   
    19     6    24 1   
    20     7     8 1   
    21     7    25 1   
    22     7    26 1   
    23     8     9 1   
    24     8    27 1   
    25     8    28 1   
    26     9    10 1   
    27     9    29 1   
    28     9    30 1   
    29    10    11 1   
    30    10    31 1   
    31    10    32 1   
    32    11    33 1   
@<TRIPOS>SUBSTRUCTURE
     1 D1T         1 TEMP              0 ****  ****    0 ROOT
