@<TRIPOS>MOLECULE
D1T
   33    32     1     0     0
SMALL
abcg2


@<TRIPOS>ATOM
      1 C10          7.0220    -0.4820     0.0300 c3         1 D1T      -0.088100
      2 C9           5.7810     0.4000     0.0260 c3         1 D1T      -0.074400
      3 C8           4.4870    -0.4060     0.0220 c3         1 D1T      -0.075400
      4 C7           3.2340     0.4610     0.0150 c3         1 D1T      -0.074400
      5 C6           1.9440    -0.3500     0.0110 c3         1 D1T      -0.074400
      6 C5           0.6890     0.5130     0.0090 c3         1 D1T      -0.074400
      7 C4          -0.5980    -0.3020     0.0050 c3         1 D1T      -0.074400
      8 C3          -1.8540     0.5600     0.0010 c3         1 D1T      -0.074400
      9 C2          -3.1360    -0.2650    -0.0050 c3         1 D1T      -0.069400
     10 C1          -4.3770     0.6150    -0.0090 c3         1 D1T       0.088600
     11 S1          -5.8640    -0.4430    -0.0280 sh         1 D1T      -0.463800
     12 H101         7.9390     0.1100     0.0340 hc         1 D1T       0.031367
     13 H102         7.0420    -1.1270     0.9100 hc         1 D1T       0.031367
     14 H103         7.0490    -1.1260    -0.8510 hc         1 D1T       0.031367
     15 H91          5.7940     1.0580     0.9000 hc         1 D1T       0.036700
     16 H92          5.8000     1.0580    -0.8490 hc         1 D1T       0.036700
     17 H81          4.4760    -1.0670    -0.8520 hc         1 D1T       0.037700
     18 H82          4.4680    -1.0640     0.8980 hc         1 D1T       0.037700
     19 H71          3.2450     1.1230     0.8880 hc         1 D1T       0.036700
     20 H72          3.2520     1.1180    -0.8620 hc         1 D1T       0.036700
     21 H61          1.9320    -1.0090    -0.8650 hc         1 D1T       0.037700
     22 H62          1.9280    -1.0110     0.8860 hc         1 D1T       0.037700
     23 H51          0.6990     1.1710     0.8850 hc         1 D1T       0.037700
     24 H52          0.7040     1.1730    -0.8660 hc         1 D1T       0.037700
     25 H41         -0.6080    -0.9610    -0.8710 hc         1 D1T       0.039700
     26 H42         -0.6140    -0.9620     0.8790 hc         1 D1T       0.039700
     27 H31         -1.8480     1.2170     0.8770 hc         1 D1T       0.038700
     28 H32         -1.8400     1.2180    -0.8750 hc         1 D1T       0.038700
     29 H21         -3.1460    -0.9180    -0.8840 hc         1 D1T       0.054700
     30 H22         -3.1540    -0.9200     0.8720 hc         1 D1T       0.054700
     31 H11         -4.3960     1.2480     0.8780 h1         1 D1T       0.056700
     32 H12         -4.3830     1.2600    -0.8880 h1         1 D1T       0.056700
     33 HS1         -6.7850     0.5270    -0.0340 hs         1 D1T       0.211800
@<TRIPOS>BOND
     1     1     2 1   
     2     1    12 1   
     3     1    13 1   
     4     1    14 1   
     5     2     3 1   
     6     2    15 1   
     7     2    16 1   
     8     3     4 1   
     9     3    17 1   
    10     3    18 1   
    11     4     5 1   
    12     4    19 1   
    13     4    20 1   
    14     5     6 1   
    15     5    21 1   
    16     5    22 1   
    17     6     7 1   
    18     6    23 1   
    19     6    24 1   
    20     7     8 1   
    21     7    25 1   
    22     7    26 1   
    23     8     9 1   
    24     8    27 1   
    25     8    28 1   
    26     9    10 1   
    27     9    29 1   
    28     9    30 1   
    29    10    11 1   
    30    10    31 1   
    31    10    32 1   
    32    11    33 1   
@<TRIPOS>SUBSTRUCTURE
     1 D1T         1 TEMP              0 ****  ****    0 ROOT
