@<TRIPOS>MOLECULE
D1U
   53    55     1     0     0
SMALL
abcg2


@<TRIPOS>ATOM
      1 CAA          6.8490    -3.4910    -1.3960 c3         1 D1U       0.041900
      2 CAB         -4.1960     3.3510    -2.0000 c3         1 D1U      -0.089600
      3 CAC         -3.2610     1.1960    -2.8240 c3         1 D1U      -0.089600
      4 NAD          3.9790     4.1990     1.5890 nt         1 D1U      -0.595000
      5 OAE          4.8580     2.8360     0.0350 o          1 D1U      -0.640100
      6 OAF         -5.2670    -1.0540    -0.2430 o          1 D1U      -0.508100
      7 FAG         -3.8550    -2.5320     2.0700 f          1 D1U      -0.101000
      8 FAH         -1.8390    -3.2510     1.8390 f          1 D1U      -0.101000
      9 FAI         -3.1990    -3.3080     0.1720 f          1 D1U      -0.101000
     10 CAJ          0.1960     2.4460     0.9920 ca         1 D1U      -0.198000
     11 CAK          1.4250     3.0800     1.0120 ca         1 D1U      -0.024000
     12 CAL          1.3210     0.4090     0.3280 ca         1 D1U      -0.199000
     13 CAM          3.6810    -1.0170    -0.3940 c3         1 D1U       0.230800
     14 CAN          5.1020    -1.4740    -0.6770 c3         1 D1U       0.037600
     15 CAO         -4.8580     1.2240    -0.8770 c6         1 D1U      -0.173400
     16 CAP         -2.5270     2.1340    -0.6070 c6         1 D1U      -0.017100
     17 NAQ         -1.1460    -0.8370     1.0540 nc         1 D1U      -0.460800
     18 NAR          3.6950     0.3580     0.0400 nu         1 D1U      -0.958200
     19 SAS          5.0800    -3.2240    -1.1490 ss         1 D1U      -0.420000
     20 CAT          3.9070     3.1590     0.7460 c          1 D1U       0.632700
     21 CAU         -4.4870    -0.1260    -0.3070 c          1 D1U       0.618700
     22 CAV          0.1690     1.1030     0.6440 ca         1 D1U       0.076800
     23 CAW          2.5710     1.0490     0.3430 ca         1 D1U       0.405000
     24 CAX          2.6130     2.4230     0.7100 ca         1 D1U      -0.247600
     25 CAY         -2.2290     0.8400     0.0530 cc         1 D1U      -0.072300
     26 CAZ         -2.3740    -1.2200     0.8240 cd         1 D1U       0.194300
     27 CBA         -3.1220    -0.2040     0.1930 cd         1 D1U      -0.262600
     28 NBB         -1.0670     0.4160     0.5880 na         1 D1U       0.238000
     29 CBC         -3.7090     1.9670    -1.5800 c6         1 D1U      -0.033000
     30 HAA          7.4100    -3.2320    -0.4990 h1         1 D1U       0.062700
     31 HAAA         6.9910    -4.5500    -1.6010 h1         1 D1U       0.062700
     32 HAAB         7.2240    -2.9130    -2.2390 h1         1 D1U       0.062700
     33 HAB         -3.3960     3.9170    -2.4810 hc         1 D1U       0.041033
     34 HABA        -5.0210     3.2720    -2.7090 hc         1 D1U       0.041033
     35 HABB        -4.5450     3.9290    -1.1420 hc         1 D1U       0.041033
     36 HAC         -2.8890     0.1960    -2.5920 hc         1 D1U       0.041033
     37 HACA        -4.0890     1.0840    -3.5260 hc         1 D1U       0.041033
     38 HACB        -2.4610     1.7310    -3.3390 hc         1 D1U       0.041033
     39 HNAD         4.8390     4.7180     1.6590 hn         1 D1U       0.317000
     40 HNAA         3.2770     4.3840     2.2830 hn         1 D1U       0.317000
     41 HAJ         -0.7010     2.9820     1.2640 ha         1 D1U       0.128000
     42 HAK          1.4450     4.1320     1.2640 ha         1 D1U       0.113000
     43 HAL          1.2440    -0.6320     0.0470 ha         1 D1U       0.146000
     44 HAM          3.0680    -1.1500    -1.2940 h1         1 D1U       0.057700
     45 HAMA         3.2430    -1.6490     0.3850 h1         1 D1U       0.057700
     46 HAN          5.5350    -0.8830    -1.4870 h1         1 D1U       0.068200
     47 HANA         5.7260    -1.3490     0.2100 h1         1 D1U       0.068200
     48 HAO         -5.7040     1.1040    -1.5560 hc         1 D1U       0.072700
     49 HAOA        -5.2150     1.8290    -0.0330 hc         1 D1U       0.072700
     50 HAP         -2.7800     2.8770     0.1570 hc         1 D1U       0.067200
     51 HAPA        -1.6520     2.5180    -1.1360 hc         1 D1U       0.067200
     52 HNAR         4.5040     0.9190    -0.1850 hn         1 D1U       0.526000
     53 CBD         -2.8180    -2.5840     1.2290 c3         1 D1U       0.298700
@<TRIPOS>BOND
     1     1    19 1   
     2     1    30 1   
     3     1    31 1   
     4     1    32 1   
     5     2    29 1   
     6     2    33 1   
     7     2    34 1   
     8     2    35 1   
     9     3    29 1   
    10     3    36 1   
    11     3    37 1   
    12     3    38 1   
    13     4    20 1   
    14     4    39 1   
    15     4    40 1   
    16     5    20 2   
    17     6    21 2   
    18     7    53 1   
    19     8    53 1   
    20     9    53 1   
    21    10    11 ar  
    22    10    22 ar  
    23    10    41 1   
    24    11    24 ar  
    25    11    42 1   
    26    12    22 ar  
    27    12    23 ar  
    28    12    43 1   
    29    13    14 1   
    30    13    18 1   
    31    13    44 1   
    32    13    45 1   
    33    14    19 1   
    34    14    46 1   
    35    14    47 1   
    36    15    21 1   
    37    15    29 1   
    38    15    48 1   
    39    15    49 1   
    40    16    25 1   
    41    16    29 1   
    42    16    50 1   
    43    16    51 1   
    44    17    26 2   
    45    17    28 1   
    46    18    23 1   
    47    18    52 1   
    48    20    24 1   
    49    21    27 1   
    50    22    28 1   
    51    23    24 ar  
    52    25    27 2   
    53    25    28 1   
    54    26    27 1   
    55    26    53 1   
@<TRIPOS>SUBSTRUCTURE
     1 D1U         1 TEMP              0 ****  ****    0 ROOT
