@<TRIPOS>MOLECULE
D1U
   53    55     1     0     0
SMALL
No Charge or Current Charge


@<TRIPOS>ATOM
      1 CAA          7.2910    -3.2950    -1.5190 c3         1 D1U       0.041900
      2 CAB         -4.1140     3.4440    -2.1470 c3         1 D1U      -0.089600
      3 CAC         -3.3370     1.1780    -2.8900 c3         1 D1U      -0.089600
      4 NAD          3.9680     4.1920     1.4810 nt         1 D1U      -0.595000
      5 OAE          4.9660     2.5440     0.4160 o          1 D1U      -0.640100
      6 OAF         -5.4550    -0.8760    -0.1920 o          1 D1U      -0.508100
      7 FAG         -4.2900    -2.3600     2.1550 f          1 D1U      -0.101000
      8 FAH         -2.3670    -3.3550     2.0130 f          1 D1U      -0.101000
      9 FAI         -3.6590    -3.2540     0.2720 f          1 D1U      -0.101000
     10 CAJ          0.1910     2.2100     1.2900 ca         1 D1U      -0.198000
     11 CAK          1.4300     2.8650     1.3450 ca         1 D1U      -0.024000
     12 CAL          1.2340     0.3320     0.1810 ca         1 D1U      -0.199000
     13 CAM          3.8560    -1.1240    -0.2600 c3         1 D1U       0.230800
     14 CAN          5.2540    -1.4470    -0.8290 c3         1 D1U       0.037600
     15 CAO         -4.9230     1.3760    -0.8890 c6         1 D1U      -0.173400
     16 CAP         -2.4950     2.1410    -0.6650 c6         1 D1U      -0.017100
     17 NAQ         -1.3080    -0.9680     1.1750 nc         1 D1U      -0.460800
     18 NAR          3.5910     0.3260    -0.2970 nu         1 D1U      -0.958200
     19 SAS          5.5930    -3.2690    -0.7830 ss         1 D1U      -0.420000
     20 CAT          3.9270     2.9850     0.8800 c          1 D1U       0.632700
     21 CAU         -4.6120     0.0080    -0.2490 c          1 D1U       0.618700
     22 CAV          0.0810     0.9390     0.7030 ca         1 D1U       0.076800
     23 CAW          2.4810     0.9730     0.2360 ca         1 D1U       0.405000
     24 CAX          2.5980     2.2600     0.8160 ca         1 D1U      -0.247600
     25 CAY         -2.2920     0.8370     0.0670 cc         1 D1U      -0.072300
     26 CAZ         -2.5890    -1.2240     0.9250 cd         1 D1U       0.194300
     27 CBA         -3.2260    -0.1400     0.2500 cd         1 D1U      -0.262600
     28 NBB         -1.1550     0.2880     0.6370 na         1 D1U       0.238000
     29 CBC         -3.7140     2.0280    -1.6360 c6         1 D1U      -0.033000
     30 HAA          7.9760    -2.7020    -0.9000 h1         1 D1U       0.062700
     31 HAAA         7.6570    -4.3290    -1.5690 h1         1 D1U       0.062700
     32 HAAB         7.2660    -2.8750    -2.5320 h1         1 D1U       0.062700
     33 HAB         -3.2830     3.9300    -2.6730 hc         1 D1U       0.041033
     34 HABA        -4.9620     3.3960    -2.8410 hc         1 D1U       0.041033
     35 HABB        -4.4060     4.1010    -1.3180 hc         1 D1U       0.041033
     36 HAC         -3.0210     0.1640    -2.6190 hc         1 D1U       0.041033
     37 HACA        -4.1860     1.0830    -3.5780 hc         1 D1U       0.041033
     38 HACB        -2.5110     1.6350    -3.4490 hc         1 D1U       0.041033
     39 HNAD         4.8470     4.6830     1.5280 hn         1 D1U       0.317000
     40 HNAA         3.1350     4.5930     1.8800 hn         1 D1U       0.317000
     41 HAJ         -0.6880     2.6940     1.7100 ha         1 D1U       0.128000
     42 HAK          1.4600     3.8500     1.8050 ha         1 D1U       0.113000
     43 HAL          1.1490    -0.6470    -0.2810 ha         1 D1U       0.146000
     44 HAM          3.1040    -1.6670    -0.8480 h1         1 D1U       0.057700
     45 HAMA         3.8020    -1.4900     0.7750 h1         1 D1U       0.057700
     46 HAN          5.3160    -1.0970    -1.8670 h1         1 D1U       0.068200
     47 HANA         6.0200    -0.9260    -0.2400 h1         1 D1U       0.068200
     48 HAO         -5.8260     1.2980    -1.5080 hc         1 D1U       0.072700
     49 HAOA        -5.1640     2.0370    -0.0460 hc         1 D1U       0.072700
     50 HAP         -2.6730     2.9440     0.0630 hc         1 D1U       0.067200
     51 HAPA        -1.5910     2.4290    -1.2200 hc         1 D1U       0.067200
     52 HNAR         4.4230     0.9310    -0.2400 hn         1 D1U       0.526000
     53 CBD         -3.2240    -2.5480     1.3420 c3         1 D1U       0.298700
@<TRIPOS>BOND
     1     1    19 1   
     2     1    30 1   
     3     1    31 1   
     4     1    32 1   
     5     2    29 1   
     6     2    33 1   
     7     2    34 1   
     8     2    35 1   
     9     3    29 1   
    10     3    36 1   
    11     3    37 1   
    12     3    38 1   
    13     4    20 1   
    14     4    39 1   
    15     4    40 1   
    16     5    20 2   
    17     6    21 2   
    18     7    53 1   
    19     8    53 1   
    20     9    53 1   
    21    10    11 ar  
    22    10    22 ar  
    23    10    41 1   
    24    11    24 ar  
    25    11    42 1   
    26    12    22 ar  
    27    12    23 ar  
    28    12    43 1   
    29    13    14 1   
    30    13    18 1   
    31    13    44 1   
    32    13    45 1   
    33    14    19 1   
    34    14    46 1   
    35    14    47 1   
    36    15    21 1   
    37    15    29 1   
    38    15    48 1   
    39    15    49 1   
    40    16    25 1   
    41    16    29 1   
    42    16    50 1   
    43    16    51 1   
    44    17    26 2   
    45    17    28 1   
    46    18    23 1   
    47    18    52 1   
    48    20    24 1   
    49    21    27 1   
    50    22    28 1   
    51    23    24 ar  
    52    25    27 2   
    53    25    28 1   
    54    26    27 1   
    55    26    53 1   
@<TRIPOS>SUBSTRUCTURE
     1 D1U         1 TEMP              0 ****  ****    0 ROOT
