@<TRIPOS>MOLECULE
D1V
   18    19     1     0     0
SMALL
abcg2


@<TRIPOS>ATOM
      1 O4           0.2510    -2.7600     0.0040 o          1 D1V      -0.527000
      2 C3           0.0270    -1.5670     0.0020 c          1 D1V       0.580600
      3 C4           1.0280    -0.5070    -0.0010 ca         1 D1V      -0.203600
      4 C1           0.6040     0.8310    -0.0020 ca         1 D1V       0.192400
      5 N1          -0.7260     1.1840    -0.0010 nc         1 D1V      -0.646100
      6 C2          -1.5870     0.2380     0.0020 cd         1 D1V       0.543800
      7 S1          -3.3110     0.5560     0.0070 sh         1 D1V      -0.265000
      8 N2          -1.2700    -1.0880     0.0040 ns         1 D1V      -0.423400
      9 C8           1.5700     1.8440    -0.0010 ca         1 D1V      -0.105000
     10 C7           2.9090     1.5220    -0.0020 ca         1 D1V      -0.073000
     11 C6           3.3260     0.1880    -0.0030 ca         1 D1V      -0.132000
     12 C5           2.3880    -0.8200    -0.0020 ca         1 D1V      -0.039000
     13 HS1         -3.1900     1.8860    -0.0110 hs         1 D1V       0.247800
     14 HN2         -2.0010    -1.7860     0.0030 hn         1 D1V       0.341500
     15 H8           1.2460     2.8760     0.0070 ha         1 D1V       0.132000
     16 H7           3.6470     2.3130     0.0010 ha         1 D1V       0.118000
     17 H6           4.3810    -0.0500    -0.0040 ha         1 D1V       0.121000
     18 H5           2.6920    -1.8590    -0.0010 ha         1 D1V       0.136000
@<TRIPOS>BOND
     1     1     2 2   
     2     2     3 1   
     3     2     8 1   
     4     3     4 ar  
     5     3    12 ar  
     6     4     5 1   
     7     4     9 ar  
     8     5     6 2   
     9     6     7 1   
    10     6     8 1   
    11     7    13 1   
    12     8    14 1   
    13     9    10 ar  
    14     9    15 1   
    15    10    11 ar  
    16    10    16 1   
    17    11    12 ar  
    18    11    17 1   
    19    12    18 1   
@<TRIPOS>SUBSTRUCTURE
     1 D1V         1 TEMP              0 ****  ****    0 ROOT
