@<TRIPOS>MOLECULE
D1V
   18    19     1     0     0
SMALL
No Charge or Current Charge


@<TRIPOS>ATOM
      1 O4           0.2320    -2.7700     0.0020 o          1 D1V      -0.527000
      2 C3          -0.0140    -1.5740     0.0010 c          1 D1V       0.580600
      3 C4           1.0160    -0.5100     0.0000 ca         1 D1V      -0.203600
      4 C1           0.5890     0.8330    -0.0000 ca         1 D1V       0.192400
      5 N1          -0.7600     1.2310     0.0000 nc         1 D1V      -0.646100
      6 C2          -1.6200     0.2150     0.0010 cd         1 D1V       0.543800
      7 S1          -3.3440     0.5440     0.0010 sh         1 D1V      -0.265000
      8 N2          -1.2800    -1.1040     0.0010 ns         1 D1V      -0.423400
      9 C8           1.5660     1.8470    -0.0010 ca         1 D1V      -0.105000
     10 C7           2.9370     1.5370    -0.0010 ca         1 D1V      -0.073000
     11 C6           3.3500     0.1970    -0.0010 ca         1 D1V      -0.132000
     12 C5           2.3920    -0.8290    -0.0000 ca         1 D1V      -0.039000
     13 HS1         -3.1330     1.8790     0.0010 hs         1 D1V       0.247800
     14 HN2         -2.0060    -1.8030     0.0020 hn         1 D1V       0.341500
     15 H8           1.2550     2.8880    -0.0010 ha         1 D1V       0.132000
     16 H7           3.6760     2.3360    -0.0020 ha         1 D1V       0.118000
     17 H6           4.4100    -0.0480    -0.0010 ha         1 D1V       0.121000
     18 H5           2.7180    -1.8670     0.0000 ha         1 D1V       0.136000
@<TRIPOS>BOND
     1     1     2 2   
     2     2     3 1   
     3     2     8 1   
     4     3     4 ar  
     5     3    12 ar  
     6     4     5 1   
     7     4     9 ar  
     8     5     6 2   
     9     6     7 1   
    10     6     8 1   
    11     7    13 1   
    12     8    14 1   
    13     9    10 ar  
    14     9    15 1   
    15    10    11 ar  
    16    10    16 1   
    17    11    12 ar  
    18    11    17 1   
    19    12    18 1   
@<TRIPOS>SUBSTRUCTURE
     1 D1V         1 TEMP              0 ****  ****    0 ROOT
