@<TRIPOS>MOLECULE
D1W
   54    57     1     0     0
SMALL
abcg2


@<TRIPOS>ATOM
      1 C1           0.7560    -1.2300     0.7960 ca         1 D1W       0.543300
      2 N2           1.9760    -0.7760     0.7650 nb         1 D1W      -0.713000
      3 C3           2.1940     0.5450     0.7060 cp         1 D1W       0.412500
      4 C4           1.1410     1.4380     0.7020 ca         1 D1W      -0.151000
      5 C5          -0.1650     0.9550     0.7560 ca         1 D1W      -0.126000
      6 C6          -0.3990    -0.4090     0.7870 ca         1 D1W       0.259000
      7 C7           3.5960     1.0130     0.6760 cp         1 D1W      -0.132500
      8 C8           4.0130     2.0120     1.5530 ca         1 D1W      -0.099000
      9 C9           5.3190     2.4770     1.5350 ca         1 D1W      -0.116000
     10 C10          6.2330     1.9350     0.6470 ca         1 D1W      -0.101000
     11 C11          4.5140     0.4810    -0.2350 ca         1 D1W       0.088100
     12 C12          5.8380     0.9390    -0.2360 ca         1 D1W       0.049100
     13 O13          6.7630     0.4450    -1.0930 os         1 D1W      -0.332100
     14 C14          6.3840    -0.7540    -1.7490 c6         1 D1W       0.117600
     15 C15          4.9570    -0.6480    -2.2270 c6         1 D1W       0.114600
     16 O16          4.0900    -0.4450    -1.1240 os         1 D1W      -0.310100
     17 O17          0.5320    -2.5490     0.8600 os         1 D1W      -0.477300
     18 C18          1.6590    -3.4120     0.8970 c3         1 D1W       0.162900
     19 N19         -1.6410    -1.0090     0.8370 nu         1 D1W      -0.975000
     20 C20         -2.8690    -0.4300     0.5510 ca         1 D1W       0.317000
     21 C21         -3.0340     0.5500    -0.4290 ca         1 D1W      -0.171000
     22 C22         -4.2960     1.0640    -0.6950 ca         1 D1W      -0.063000
     23 C23         -5.4250     0.6210    -0.0190 ca         1 D1W      -0.121300
     24 C24         -5.2560    -0.3770     0.9390 ca         1 D1W      -0.063000
     25 C25         -4.0040    -0.8880     1.2290 ca         1 D1W      -0.171000
     26 C26         -6.7890     1.1890    -0.3020 c3         1 D1W       0.217100
     27 N27         -7.7520     0.1660    -0.6630 n3         1 D1W      -0.714600
     28 C28         -9.0950     0.7030    -0.6910 c3         1 D1W       0.150100
     29 C29         -7.4180    -0.4720    -1.9170 c3         1 D1W       0.150100
     30 H1           1.3150     2.5050     0.6550 ha         1 D1W       0.126000
     31 H2          -0.9870     1.6560     0.7710 ha         1 D1W       0.130000
     32 H3           3.3060     2.4200     2.2640 ha         1 D1W       0.119000
     33 H4           5.6300     3.2510     2.2230 ha         1 D1W       0.119000
     34 H5           7.2600     2.2770     0.6270 ha         1 D1W       0.127000
     35 H6           7.0630    -0.8910    -2.5900 h1         1 D1W       0.066700
     36 H7           6.4950    -1.6070    -1.0700 h1         1 D1W       0.066700
     37 H8           4.8550     0.1730    -2.9450 h1         1 D1W       0.066700
     38 H9           4.6460    -1.5710    -2.7130 h1         1 D1W       0.066700
     39 H10          2.2940    -3.2840     0.0190 h1         1 D1W       0.045700
     40 H11          2.2640    -3.2480     1.7890 h1         1 D1W       0.045700
     41 H12          1.2590    -4.4220     0.9120 h1         1 D1W       0.045700
     42 H13         -1.6790    -1.8970     1.3120 hn         1 D1W       0.506000
     43 H14         -2.1910     0.8980    -1.0100 ha         1 D1W       0.117000
     44 H15         -4.3960     1.8210    -1.4640 ha         1 D1W       0.116000
     45 H16         -6.1190    -0.7560     1.4730 ha         1 D1W       0.116000
     46 H17         -3.8980    -1.6530     1.9900 ha         1 D1W       0.117000
     47 H18         -7.1620     1.6930     0.5950 h1         1 D1W       0.035200
     48 H19         -6.7050     1.9680    -1.0800 h1         1 D1W       0.035200
     49 H21         -9.2360     1.4910    -1.4480 h1         1 D1W       0.030867
     50 H22         -9.8100    -0.0930    -0.9080 h1         1 D1W       0.030867
     51 H23         -9.3510     1.1250     0.2820 h1         1 D1W       0.030867
     52 H24         -6.4370    -0.9440    -1.8570 h1         1 D1W       0.030867
     53 H25         -8.1480    -1.2510    -2.1420 h1         1 D1W       0.030867
     54 H26         -7.4020     0.2290    -2.7670 h1         1 D1W       0.030867
@<TRIPOS>BOND
     1     1     2 ar  
     2     1     6 ar  
     3     1    17 1   
     4     2     3 ar  
     5     3     4 ar  
     6     3     7 1   
     7     4     5 ar  
     8     4    30 1   
     9     5     6 ar  
    10     5    31 1   
    11     6    19 1   
    12     7     8 ar  
    13     7    11 ar  
    14     8     9 ar  
    15     8    32 1   
    16     9    10 ar  
    17     9    33 1   
    18    10    12 ar  
    19    10    34 1   
    20    11    12 ar  
    21    11    16 1   
    22    12    13 1   
    23    13    14 1   
    24    14    15 1   
    25    14    35 1   
    26    14    36 1   
    27    15    16 1   
    28    15    37 1   
    29    15    38 1   
    30    17    18 1   
    31    18    39 1   
    32    18    40 1   
    33    18    41 1   
    34    19    20 1   
    35    19    42 1   
    36    20    21 ar  
    37    20    25 ar  
    38    21    22 ar  
    39    21    43 1   
    40    22    23 ar  
    41    22    44 1   
    42    23    24 ar  
    43    23    26 1   
    44    24    25 ar  
    45    24    45 1   
    46    25    46 1   
    47    26    27 1   
    48    26    47 1   
    49    26    48 1   
    50    27    28 1   
    51    27    29 1   
    52    28    49 1   
    53    28    50 1   
    54    28    51 1   
    55    29    52 1   
    56    29    53 1   
    57    29    54 1   
@<TRIPOS>SUBSTRUCTURE
     1 D1W         1 TEMP              0 ****  ****    0 ROOT
