@<TRIPOS>MOLECULE
D1W
   54    57     1     0     0
SMALL
No Charge or Current Charge


@<TRIPOS>ATOM
      1 C1           0.7610    -1.2420     0.9120 ca         1 D1W       0.543300
      2 N2           2.0340    -0.7850     0.8140 nb         1 D1W      -0.713000
      3 C3           2.2460     0.5450     0.7190 cp         1 D1W       0.412500
      4 C4           1.1720     1.4660     0.7710 ca         1 D1W      -0.151000
      5 C5          -0.1530     1.0090     0.8780 ca         1 D1W      -0.126000
      6 C6          -0.3900    -0.3770     0.9310 ca         1 D1W       0.259000
      7 C7           3.6650     1.0180     0.6410 cp         1 D1W      -0.132500
      8 C8           4.1070     2.0590     1.5000 ca         1 D1W      -0.099000
      9 C9           5.4290     2.5360     1.4550 ca         1 D1W      -0.116000
     10 C10          6.3490     1.9840     0.5480 ca         1 D1W      -0.101000
     11 C11          4.6060     0.4850    -0.2830 ca         1 D1W       0.088100
     12 C12          5.9450     0.9570    -0.3170 ca         1 D1W       0.049100
     13 O13          6.8600     0.4300    -1.2080 os         1 D1W      -0.332100
     14 C14          6.5020    -0.7930    -1.8890 c6         1 D1W       0.117600
     15 C15          5.0260    -0.7280    -2.3330 c6         1 D1W       0.114600
     16 O16          4.1850    -0.4730    -1.1880 os         1 D1W      -0.310100
     17 O17          0.5530    -2.6090     1.0100 os         1 D1W      -0.477300
     18 C18          1.6540    -3.5390     0.9680 c3         1 D1W       0.162900
     19 N19         -1.7170    -0.8740     1.0520 nu         1 D1W      -0.975000
     20 C20         -2.9780    -0.3590     0.7470 ca         1 D1W       0.317000
     21 C21         -3.1570     0.6170    -0.2490 ca         1 D1W      -0.171000
     22 C22         -4.4420     1.1030    -0.5470 ca         1 D1W      -0.063000
     23 C23         -5.5650     0.6070     0.1440 ca         1 D1W      -0.121300
     24 C24         -5.3870    -0.3830     1.1280 ca         1 D1W      -0.063000
     25 C25         -4.0990    -0.8670     1.4210 ca         1 D1W      -0.171000
     26 C26         -6.9630     1.1300    -0.1730 c3         1 D1W       0.217100
     27 N27         -7.8280     0.1310    -0.8450 n3         1 D1W      -0.714600
     28 C28         -9.2330     0.5840    -0.9480 c3         1 D1W       0.150100
     29 C29         -7.2890    -0.3250    -2.1480 c3         1 D1W       0.150100
     30 H1           1.3760     2.5320     0.7240 ha         1 D1W       0.126000
     31 H2          -0.9700     1.7220     0.9380 ha         1 D1W       0.130000
     32 H3           3.4160     2.4960     2.2190 ha         1 D1W       0.119000
     33 H4           5.7430     3.3320     2.1270 ha         1 D1W       0.119000
     34 H5           7.3720     2.3510     0.5160 ha         1 D1W       0.127000
     35 H6           7.1630    -0.9360    -2.7540 h1         1 D1W       0.066700
     36 H7           6.6410    -1.6390    -1.2020 h1         1 D1W       0.066700
     37 H8           4.8950     0.0850    -3.0610 h1         1 D1W       0.066700
     38 H9           4.7200    -1.6710    -2.8070 h1         1 D1W       0.066700
     39 H10          2.2050    -3.4520     0.0220 h1         1 D1W       0.045700
     40 H11          2.3520    -3.3590     1.7960 h1         1 D1W       0.045700
     41 H12          1.2870    -4.5700     1.0530 h1         1 D1W       0.045700
     42 H13         -1.7450    -1.8390     1.3930 hn         1 D1W       0.506000
     43 H14         -2.3070     0.9880    -0.8130 ha         1 D1W       0.117000
     44 H15         -4.5660     1.8570    -1.3210 ha         1 D1W       0.116000
     45 H16         -6.2480    -0.7800     1.6610 ha         1 D1W       0.116000
     46 H17         -3.9750    -1.6320     2.1830 ha         1 D1W       0.117000
     47 H18         -7.4250     1.4410     0.7740 h1         1 D1W       0.035200
     48 H19         -6.8800     2.0330    -0.7940 h1         1 D1W       0.035200
     49 H21         -9.3120     1.4730    -1.5880 h1         1 D1W       0.030867
     50 H22         -9.8650    -0.2060    -1.3760 h1         1 D1W       0.030867
     51 H23         -9.6330     0.8360     0.0430 h1         1 D1W       0.030867
     52 H24         -6.2920    -0.7700    -2.0300 h1         1 D1W       0.030867
     53 H25         -7.9430    -1.0890    -2.5910 h1         1 D1W       0.030867
     54 H26         -7.2120     0.5120    -2.8550 h1         1 D1W       0.030867
@<TRIPOS>BOND
     1     1     2 ar  
     2     1     6 ar  
     3     1    17 1   
     4     2     3 ar  
     5     3     4 ar  
     6     3     7 1   
     7     4     5 ar  
     8     4    30 1   
     9     5     6 ar  
    10     5    31 1   
    11     6    19 1   
    12     7     8 ar  
    13     7    11 ar  
    14     8     9 ar  
    15     8    32 1   
    16     9    10 ar  
    17     9    33 1   
    18    10    12 ar  
    19    10    34 1   
    20    11    12 ar  
    21    11    16 1   
    22    12    13 1   
    23    13    14 1   
    24    14    15 1   
    25    14    35 1   
    26    14    36 1   
    27    15    16 1   
    28    15    37 1   
    29    15    38 1   
    30    17    18 1   
    31    18    39 1   
    32    18    40 1   
    33    18    41 1   
    34    19    20 1   
    35    19    42 1   
    36    20    21 ar  
    37    20    25 ar  
    38    21    22 ar  
    39    21    43 1   
    40    22    23 ar  
    41    22    44 1   
    42    23    24 ar  
    43    23    26 1   
    44    24    25 ar  
    45    24    45 1   
    46    25    46 1   
    47    26    27 1   
    48    26    47 1   
    49    26    48 1   
    50    27    28 1   
    51    27    29 1   
    52    28    49 1   
    53    28    50 1   
    54    28    51 1   
    55    29    52 1   
    56    29    53 1   
    57    29    54 1   
@<TRIPOS>SUBSTRUCTURE
     1 D1W         1 TEMP              0 ****  ****    0 ROOT
