@<TRIPOS>MOLECULE
D1X
   15    15     1     0     0
SMALL
abcg2


@<TRIPOS>ATOM
      1 OAA         -2.7670    -1.1570     0.0050 o          1 D1X      -0.702500
      2 OAB          2.1860    -2.1710     0.0200 o          1 D1X      -0.579000
      3 OAC         -2.8740     1.0750     0.0300 o          1 D1X      -0.702500
      4 CAE         -0.1000     1.2050     0.0180 ce         1 D1X      -0.330200
      5 CAF         -0.0170    -1.2560     0.0150 c6         1 D1X      -0.135200
      6 NAG          2.0340     0.0700     0.0170 ns         1 D1X      -0.484500
      7 CAH         -2.2800    -0.0130     0.0170 c          1 D1X       0.711200
      8 CAI          1.3600     1.2900     0.0210 c          1 D1X       0.583200
      9 CAJ         -0.7500     0.0410     0.0160 cf         1 D1X      -0.099400
     10 CAK          1.4840    -1.1810     0.0180 c          1 D1X       0.575000
     11 HAE         -0.6400     2.1420     0.0210 ha         1 D1X       0.224000
     12 HAF         -0.3190    -1.8530     0.8800 hc         1 D1X       0.101200
     13 HAFA        -0.3220    -1.8570    -0.8460 hc         1 D1X       0.101200
     14 HNAG         3.0440     0.1250     0.0230 hn         1 D1X       0.301500
     15 OAD          1.9820     2.3250     0.0270 o          1 D1X      -0.563000
@<TRIPOS>BOND
     1     1     7 1   
     2     2    10 2   
     3     3     7 1   
     4     4     8 1   
     5     4     9 2   
     6     4    11 1   
     7     5     9 1   
     8     5    10 1   
     9     5    12 1   
    10     5    13 1   
    11     6     8 1   
    12     6    10 1   
    13     6    14 1   
    14     7     9 1   
    15     8    15 2   
@<TRIPOS>SUBSTRUCTURE
     1 D1X         1 TEMP              0 ****  ****    0 ROOT
