@<TRIPOS>MOLECULE
D1X
   15    15     1     0     0
SMALL
No Charge or Current Charge


@<TRIPOS>ATOM
      1 OAA         -2.8540    -1.1230    -0.1890 o          1 D1X      -0.702500
      2 OAB          2.0470    -2.0000    -0.8440 o          1 D1X      -0.579000
      3 OAC         -2.8960     1.0190    -0.3510 o          1 D1X      -0.702500
      4 CAE         -0.0780     1.1780     0.0660 ce         1 D1X      -0.330200
      5 CAF         -0.0050    -1.2980     0.2340 c6         1 D1X      -0.135200
      6 NAG          2.0350     0.0470     0.0970 ns         1 D1X      -0.484500
      7 CAH         -2.2960    -0.0350    -0.1920 c          1 D1X       0.711200
      8 CAI          1.3960     1.2430     0.2200 c          1 D1X       0.583200
      9 CAJ         -0.7950     0.0090     0.0120 cf         1 D1X      -0.099400
     10 CAK          1.4540    -1.1490    -0.2000 c          1 D1X       0.575000
     11 HAE         -0.5850     2.1390    -0.0160 ha         1 D1X       0.224000
     12 HAF          0.0090    -1.4490     1.3210 hc         1 D1X       0.101200
     13 HAFA        -0.4540    -2.1760    -0.2460 hc         1 D1X       0.101200
     14 HNAG         3.0360     0.0950    -0.0090 hn         1 D1X       0.301500
     15 OAD          2.0060     2.2850     0.3790 o          1 D1X      -0.563000
@<TRIPOS>BOND
     1     1     7 1   
     2     2    10 2   
     3     3     7 1   
     4     4     8 1   
     5     4     9 2   
     6     4    11 1   
     7     5     9 1   
     8     5    10 1   
     9     5    12 1   
    10     5    13 1   
    11     6     8 1   
    12     6    10 1   
    13     6    14 1   
    14     7     9 1   
    15     8    15 2   
@<TRIPOS>SUBSTRUCTURE
     1 D1X         1 TEMP              0 ****  ****    0 ROOT
