@<TRIPOS>MOLECULE
D1Y
   22    22     1     0     0
SMALL
No Charge or Current Charge


@<TRIPOS>ATOM
      1 C10         35.0420    77.1810    63.5940 ca         1 D1Y      -0.031000
      2 C15         33.2960    78.3670    62.3790 ca         1 D1Y       0.195000
      3 C02         37.9800    81.4430    65.2290 c          1 D1Y       0.706200
      4 C04         37.2210    80.9750    63.9620 ce         1 D1Y       0.165900
      5 C06         36.2980    79.9640    63.9380 cf         1 D1Y      -0.534200
      6 C07         35.5470    79.4920    62.7490 c          1 D1Y       0.593900
      7 C09         34.6070    78.3340    62.9060 ca         1 D1Y      -0.141600
      8 C11         34.1840    76.0770    63.7460 ca         1 D1Y      -0.215000
      9 C12         32.8880    76.1190    63.2170 ca         1 D1Y       0.138100
     10 C14         32.4450    77.2610    62.5380 ca         1 D1Y      -0.163000
     11 O01         37.7510    80.8780    66.2950 o          1 D1Y      -0.683000
     12 O03         38.7890    82.3620    65.1400 o          1 D1Y      -0.683000
     13 O05         37.4920    81.6170    62.7920 oh         1 D1Y      -0.519100
     14 O08         35.7410    80.0280    61.6640 o          1 D1Y      -0.638100
     15 O13         32.0540    75.0540    63.3640 oh         1 D1Y      -0.543100
     16 Cl16        32.6540    79.7900    61.5570 cl         1 D1Y      -0.196000
     17 H1          36.0510    77.1330    64.0000 ha         1 D1Y       0.138000
     18 H3          36.0740    79.4530    64.8730 ha         1 D1Y       0.212000
     19 H5          34.5360    75.1950    64.2750 ha         1 D1Y       0.111000
     20 H6          31.4360    77.2950    62.1360 ha         1 D1Y       0.133000
     21 H8          36.8960    81.1530    62.1470 ho         1 D1Y       0.493000
     22 H9          32.5310    74.3560    63.8620 ho         1 D1Y       0.460000
@<TRIPOS>BOND
     1     1     7 ar  
     2     1     8 ar  
     3     1    17 1   
     4     2     7 ar  
     5     2    10 ar  
     6     2    16 1   
     7     3     4 1   
     8     3    11 1   
     9     3    12 1   
    10     4     5 2   
    11     4    13 1   
    12     5     6 1   
    13     5    18 1   
    14     6     7 1   
    15     6    14 2   
    16     8     9 ar  
    17     8    19 1   
    18     9    10 ar  
    19     9    15 1   
    20    10    20 1   
    21    13    21 1   
    22    15    22 1   
@<TRIPOS>SUBSTRUCTURE
     1 D1Y         1 TEMP              0 ****  ****    0 ROOT
